*SPEF "ieee 1481-1999"
*DESIGN "counter_board"
*DATE "22:22:15 Wednesday December 11, 2024"
*VENDOR "The OpenROAD Project"
*PROGRAM "OpenROAD"
*VERSION "v2.0-17595-gdb3156281"
*DESIGN_FLOW "NAME_SCOPE LOCAL" "PIN_CAP NONE"
*DIVIDER /
*DELIMITER :
*BUS_DELIMITER []
*T_UNIT 1 NS
*C_UNIT 1 PF
*R_UNIT 1 OHM
*L_UNIT 1 HENRY

*NAME_MAP
*1 _00_
*2 _01_
*3 _02_
*4 _03_
*5 _04_
*6 _05_
*7 _06_
*8 _07_
*9 _08_
*10 _09_
*11 _10_
*12 clock_i
*13 net3
*14 net4
*15 net5
*16 net6
*17 enable_i
*18 reset_n_i
*21 net1
*22 net2
*23 counter_value_o[0]
*24 counter_value_o[1]
*25 counter_value_o[2]
*26 counter_value_o[3]
*27 clknet_0_clock_i
*28 clknet_1_0__leaf_clock_i
*29 clknet_1_1__leaf_clock_i
*30 _11_
*31 _12_
*32 _13_
*33 _14_
*34 _15_
*35 _16_
*36 _17_
*37 counter_0\.n20_q\[0\]\$_DFFE_PN0P_
*38 counter_0\.n20_q\[1\]\$_DFFE_PN0P_
*39 counter_0\.n20_q\[2\]\$_DFFE_PN0P_
*40 counter_0\.n20_q\[3\]\$_DFFE_PN0P_
*41 input1
*42 input2
*43 output3
*44 output4
*45 output5
*46 output6
*47 clkbuf_0_clock_i
*48 clkbuf_1_0__f_clock_i
*49 clkbuf_1_1__f_clock_i
*50 FILLER_0_0
*51 FILLER_0_7
*52 FILLER_0_14
*53 FILLER_0_21
*54 FILLER_0_28
*55 FILLER_0_35
*56 FILLER_0_42
*57 FILLER_0_49
*58 FILLER_0_56
*59 FILLER_0_63
*60 FILLER_0_70
*61 FILLER_0_77
*62 FILLER_0_84
*63 FILLER_0_91
*64 FILLER_0_98
*65 FILLER_0_105
*66 FILLER_0_112
*67 FILLER_0_119
*68 FILLER_0_123
*69 FILLER_1_0
*70 FILLER_1_7
*71 FILLER_1_14
*72 FILLER_1_21
*73 FILLER_1_28
*74 FILLER_1_35
*75 FILLER_1_42
*76 FILLER_1_49
*77 FILLER_1_56
*78 FILLER_1_63
*79 FILLER_1_70
*80 FILLER_1_77
*81 FILLER_1_84
*82 FILLER_1_91
*83 FILLER_1_98
*84 FILLER_1_105
*85 FILLER_1_112
*86 FILLER_1_119
*87 FILLER_1_123
*88 FILLER_2_0
*89 FILLER_2_7
*90 FILLER_2_14
*91 FILLER_2_21
*92 FILLER_2_28
*93 FILLER_2_35
*94 FILLER_2_42
*95 FILLER_2_49
*96 FILLER_2_56
*97 FILLER_2_63
*98 FILLER_2_70
*99 FILLER_2_77
*100 FILLER_2_84
*101 FILLER_2_91
*102 FILLER_2_98
*103 FILLER_2_105
*104 FILLER_2_112
*105 FILLER_2_119
*106 FILLER_2_123
*107 FILLER_3_0
*108 FILLER_3_7
*109 FILLER_3_14
*110 FILLER_3_21
*111 FILLER_3_28
*112 FILLER_3_34
*113 FILLER_3_41
*114 FILLER_3_48
*115 FILLER_3_55
*116 FILLER_3_62
*117 FILLER_3_69
*118 FILLER_3_76
*119 FILLER_3_83
*120 FILLER_3_90
*121 FILLER_3_97
*122 FILLER_3_104
*123 FILLER_3_111
*124 FILLER_3_118
*125 FILLER_3_122
*126 FILLER_4_4
*127 FILLER_4_11
*128 FILLER_4_18
*129 FILLER_4_25
*130 FILLER_4_32
*131 FILLER_4_39
*132 FILLER_4_46
*133 FILLER_4_53
*134 FILLER_4_60
*135 FILLER_4_67
*136 FILLER_4_74
*137 FILLER_4_81
*138 FILLER_4_88
*139 FILLER_4_95
*140 FILLER_4_102
*141 FILLER_4_109
*142 FILLER_4_116
*143 FILLER_4_123
*144 FILLER_5_0
*145 FILLER_5_27
*146 FILLER_5_34
*147 FILLER_5_41
*148 FILLER_5_48
*149 FILLER_5_55
*150 FILLER_5_62
*151 FILLER_5_69
*152 FILLER_5_76
*153 FILLER_5_83
*154 FILLER_5_90
*155 FILLER_5_97
*156 FILLER_5_104
*157 FILLER_5_111
*158 FILLER_5_118
*159 FILLER_5_122
*160 FILLER_6_47
*161 FILLER_6_54
*162 FILLER_6_61
*163 FILLER_6_68
*164 FILLER_6_75
*165 FILLER_6_82
*166 FILLER_6_89
*167 FILLER_6_96
*168 FILLER_6_103
*169 FILLER_6_110
*170 FILLER_6_117
*171 FILLER_7_0
*172 FILLER_7_5
*173 FILLER_7_12
*174 FILLER_7_48
*175 FILLER_7_55
*176 FILLER_7_62
*177 FILLER_7_69
*178 FILLER_7_76
*179 FILLER_7_83
*180 FILLER_7_90
*181 FILLER_7_97
*182 FILLER_7_104
*183 FILLER_7_106
*184 FILLER_7_111
*185 FILLER_7_113
*186 FILLER_7_123
*187 FILLER_8_0
*188 FILLER_8_10
*189 FILLER_8_38
*190 FILLER_8_45
*191 FILLER_8_52
*192 FILLER_8_59
*193 FILLER_8_66
*194 FILLER_8_73
*195 FILLER_8_80
*196 FILLER_8_87
*197 FILLER_8_94
*198 FILLER_8_101
*199 FILLER_8_108
*200 FILLER_8_115
*201 FILLER_8_122
*202 FILLER_9_8
*203 FILLER_9_15
*204 FILLER_9_26
*205 FILLER_9_33
*206 FILLER_9_40
*207 FILLER_9_47
*208 FILLER_9_54
*209 FILLER_9_61
*210 FILLER_9_68
*211 FILLER_9_75
*212 FILLER_9_82
*213 FILLER_9_89
*214 FILLER_9_96
*215 FILLER_9_103
*216 FILLER_9_110
*217 FILLER_9_117
*218 FILLER_10_0
*219 FILLER_10_7
*220 FILLER_10_14
*221 FILLER_10_21
*222 FILLER_10_28
*223 FILLER_10_35
*224 FILLER_10_42
*225 FILLER_10_49
*226 FILLER_10_56
*227 FILLER_10_63
*228 FILLER_10_70
*229 FILLER_10_77
*230 FILLER_10_84
*231 FILLER_10_91
*232 FILLER_10_98
*233 FILLER_10_105
*234 FILLER_10_112
*235 FILLER_10_119
*236 FILLER_10_123
*237 FILLER_11_0
*238 FILLER_11_7
*239 FILLER_11_14
*240 FILLER_11_21
*241 FILLER_11_28
*242 FILLER_11_35
*243 FILLER_11_42
*244 FILLER_11_49
*245 FILLER_11_56
*246 FILLER_11_63
*247 FILLER_11_70
*248 FILLER_11_77
*249 FILLER_11_84
*250 FILLER_11_91
*251 FILLER_11_98
*252 FILLER_11_105
*253 FILLER_11_112
*254 FILLER_11_119
*255 FILLER_11_123
*256 FILLER_12_0
*257 FILLER_12_7
*258 FILLER_12_14
*259 FILLER_12_21
*260 FILLER_12_26
*261 FILLER_12_33
*262 FILLER_12_40
*263 FILLER_12_47
*264 FILLER_12_54
*265 FILLER_12_61
*266 FILLER_12_68
*267 FILLER_12_75
*268 FILLER_12_82
*269 FILLER_12_89
*270 FILLER_12_96
*271 FILLER_12_103
*272 FILLER_12_110
*273 FILLER_12_117
*274 FILLER_13_0
*275 FILLER_13_7
*276 FILLER_13_14
*277 FILLER_13_21
*278 FILLER_13_28
*279 FILLER_13_35
*280 FILLER_13_42
*281 FILLER_13_49
*282 FILLER_13_56
*283 FILLER_13_63
*284 FILLER_13_70
*285 FILLER_13_77
*286 FILLER_13_84
*287 FILLER_13_91
*288 FILLER_13_98
*289 FILLER_13_105
*290 FILLER_13_112
*291 FILLER_13_119
*292 FILLER_13_123
*293 FILLER_14_0
*294 FILLER_14_7
*295 FILLER_14_14
*296 FILLER_14_21
*297 FILLER_14_28
*298 FILLER_14_35
*299 FILLER_14_42
*300 FILLER_14_49
*301 FILLER_14_56
*302 FILLER_14_63
*303 FILLER_14_70
*304 FILLER_14_77
*305 FILLER_14_84
*306 FILLER_14_91
*307 FILLER_14_98
*308 FILLER_14_105
*309 FILLER_14_112
*310 FILLER_14_119
*311 FILLER_14_123

*PORTS
clock_i I
counter_value_o[0] O
counter_value_o[1] O
counter_value_o[2] O
counter_value_o[3] O
enable_i I
reset_n_i I

*D_NET *1 0.000404315
*CONN
*I *37:D I *D sg13g2_dfrbp_1
*I *30:X O *D sg13g2_xor2_1
*CAP
1 *37:D 9.3372e-05
2 *30:X 9.76977e-05
3 *1:8 0.00019107
4 *37:D *37:CLK 2.21754e-05
5 *37:D *13:16 0
6 *37:D *13:18 0
7 *1:8 *13:10 0
8 *1:8 *13:24 0
*RES
1 *30:X *1:8 41.012 
2 *1:8 *37:D 40.9328 
*END

*D_NET *2 0.000520204
*CONN
*I *38:D I *D sg13g2_dfrbp_1
*I *32:Y O *D sg13g2_xnor2_1
*CAP
1 *38:D 0.00011617
2 *32:Y 0.00011617
3 *38:D *32:A 0.000128579
4 *38:D *35:B 0
5 *38:D *36:B 0
6 *38:D *14:6 5.3072e-05
7 *38:D *14:8 0.000106214
*RES
1 *32:Y *38:D 41.4168 
*END

*D_NET *3 0.000154987
*CONN
*I *39:D I *D sg13g2_dfrbp_1
*I *34:Y O *D sg13g2_xnor2_1
*CAP
1 *39:D 7.74934e-05
2 *34:Y 7.74934e-05
3 *39:D *34:B 0
4 *39:D *13:10 0
5 *39:D *15:28 0
*RES
1 *34:Y *39:D 40.7832 
*END

*D_NET *4 0.000258861
*CONN
*I *40:D I *D sg13g2_dfrbp_1
*I *36:Y O *D sg13g2_xnor2_1
*CAP
1 *40:D 6.51412e-05
2 *36:Y 6.51412e-05
3 *40:D *36:A 0.000128578
4 *40:D *36:B 0
5 *40:D *38:CLK 0
*RES
1 *36:Y *40:D 40.7832 
*END

*D_NET *5 0.000362495
*CONN
*I *32:B I *D sg13g2_xnor2_1
*I *31:Y O *D sg13g2_nand2_1
*CAP
1 *32:B 3.20787e-05
2 *31:Y 0.000149169
3 *5:8 0.000181248
4 *32:B *35:D 0
5 *32:B *24:10 0
6 *5:8 *12:11 0
7 *5:8 *21:10 0
*RES
1 *31:Y *5:8 41.1968 
2 *5:8 *32:B 40.2992 
*END

*D_NET *6 0.000298206
*CONN
*I *34:B I *D sg13g2_xnor2_1
*I *33:Y O *D sg13g2_nand3_1
*CAP
1 *34:B 0.000138035
2 *33:Y 0.000138035
3 *34:B *33:B 0
4 *34:B *33:A 2.21365e-05
5 *34:B *35:C 0
6 *34:B *13:10 0
7 *39:D *34:B 0
*RES
1 *33:Y *34:B 41.4784 
*END

*D_NET *7 0.000407261
*CONN
*I *36:B I *D sg13g2_xnor2_1
*I *35:Y O *D sg13g2_nand4_1
*CAP
1 *36:B 0.000192582
2 *35:Y 0.000192582
3 *36:B *35:B 2.20968e-05
4 *36:B *35:C 0
5 *36:B *36:A 0
6 *36:B *38:CLK 0
7 *36:B *14:6 0
8 *38:D *36:B 0
9 *40:D *36:B 0
*RES
1 *35:Y *36:B 41.8128 
*END

*D_NET *12 0.00308969
*CONN
*P clock_i I
*I *47:A I *D sg13g2_buf_1
*CAP
1 clock_i 0.0010973
2 *47:A 0.000332547
3 *12:11 0.00142984
4 *47:A *32:A 0
5 *47:A *14:6 0
6 *47:A *14:27 0.000181383
7 *47:A *24:10 4.8613e-05
8 *12:11 counter_value_o[0] 0
9 *12:11 *33:C 0
10 *12:11 *35:B 0
11 *12:11 *35:D 0
12 *12:11 *13:42 0
13 *12:11 *14:27 0
14 *12:11 *14:36 0
15 *12:11 *17:11 0
16 *12:11 *21:10 0
17 *12:11 *21:18 0
18 *5:8 *12:11 0
*RES
1 clock_i *12:11 49.7152 
2 *12:11 *47:A 23.4672 
*END

*D_NET *13 0.00388597
*CONN
*I *35:B I *D sg13g2_nand4_1
*I *33:B I *D sg13g2_nand3_1
*I *31:A I *D sg13g2_nand2_1
*I *30:A I *D sg13g2_xor2_1
*I *43:A I *D sg13g2_buf_1
*I *37:Q O *D sg13g2_dfrbp_1
*CAP
1 *35:B 0.000244878
2 *33:B 2.86856e-05
3 *31:A 0
4 *30:A 2.51595e-05
5 *43:A 0
6 *37:Q 0.000509536
7 *13:42 0.000234003
8 *13:24 0.000272182
9 *13:18 0.000361129
10 *13:16 0.000409596
11 *13:14 0.000156282
12 *13:10 0.000770204
13 *30:A *21:18 1.54556e-05
14 *33:B *21:18 0
15 *35:B *33:A 0.000341064
16 *35:B *35:C 0
17 *35:B *35:A 4.69557e-05
18 *35:B *35:D 0
19 *35:B *14:36 3.23414e-05
20 *13:10 *37:CLK 0
21 *13:10 *39:CLK 0
22 *13:10 *15:28 0
23 *13:14 *37:CLK 0
24 *13:16 *33:C 0.000265956
25 *13:16 *35:C 0
26 *13:16 *37:CLK 0
27 *13:16 *21:18 2.20968e-05
28 *13:18 *21:18 0.000128351
29 *13:24 *23:10 0
30 *13:42 *21:10 0
31 *13:42 *21:18 0
32 *13:42 *23:10 0
33 *34:B *33:B 0
34 *34:B *13:10 0
35 *36:B *35:B 2.20968e-05
36 *37:D *13:16 0
37 *37:D *13:18 0
38 *38:D *35:B 0
39 *39:D *13:10 0
40 *1:8 *13:10 0
41 *1:8 *13:24 0
42 *12:11 *35:B 0
43 *12:11 *13:42 0
*RES
1 *37:Q *13:10 44.268 
2 *13:10 *13:14 20.1936 
3 *13:14 *13:16 1.4608 
4 *13:16 *13:18 0.7216 
5 *13:18 *13:24 43.0448 
6 *13:24 *43:A 20 
7 *13:18 *30:A 20.2728 
8 *13:16 *13:42 42.1208 
9 *13:42 *31:A 20 
10 *13:14 *33:B 20.2728 
11 *13:10 *35:B 43.0514 
*END

*D_NET *14 0.00389384
*CONN
*I *35:A I *D sg13g2_nand4_1
*I *33:A I *D sg13g2_nand3_1
*I *44:A I *D sg13g2_buf_1
*I *32:A I *D sg13g2_xnor2_1
*I *38:Q O *D sg13g2_dfrbp_1
*CAP
1 *35:A 5.37868e-05
2 *33:A 0.000206334
3 *44:A 0
4 *32:A 0.000151411
5 *38:Q 0.00055407
6 *14:36 0.000462559
7 *14:27 0.000280871
8 *14:8 0.000474421
9 *14:6 0.000798648
10 *32:A *35:D 0
11 *32:A *24:10 0
12 *33:A *34:A 0
13 *33:A *35:C 0
14 *14:6 *36:A 0
15 *14:6 *38:CLK 0
16 *14:6 *27:14 0
17 *14:6 *27:25 0
18 *14:27 *24:10 0
19 *34:B *33:A 2.21365e-05
20 *35:B *33:A 0.000341064
21 *35:B *35:A 4.69557e-05
22 *35:B *14:36 3.23414e-05
23 *36:B *14:6 0
24 *38:D *32:A 0.000128579
25 *38:D *14:6 5.3072e-05
26 *38:D *14:8 0.000106214
27 *47:A *32:A 0
28 *47:A *14:6 0
29 *47:A *14:27 0.000181383
30 *12:11 *14:27 0
31 *12:11 *14:36 0
*RES
1 *38:Q *14:6 25.368 
2 *14:6 *14:8 0.5104 
3 *14:8 *32:A 21.5752 
4 *14:8 *14:27 42.7984 
5 *14:27 *44:A 20 
6 *14:6 *14:36 22.1208 
7 *14:36 *33:A 42.1296 
8 *14:36 *35:A 40.3982 
*END

*D_NET *15 0.00578341
*CONN
*I *35:C I *D sg13g2_nand4_1
*I *34:A I *D sg13g2_xnor2_1
*I *45:A I *D sg13g2_buf_1
*I *39:Q O *D sg13g2_dfrbp_1
*CAP
1 *35:C 0.000355573
2 *34:A 6.3001e-05
3 *45:A 0
4 *39:Q 0.00186576
5 *15:28 0.00108779
6 *15:14 0.000357962
7 *15:6 0.0015545
8 *34:A *37:RESET_B 0
9 *34:A *22:31 0
10 *35:C *33:C 0
11 *35:C *22:31 0
12 *15:6 *39:RESET_B 0
13 *15:14 *16:10 0.000498825
14 *15:28 *36:A 0
15 *15:28 *39:CLK 0
16 *15:28 *39:RESET_B 0
17 *15:28 *40:CLK 0
18 *33:A *34:A 0
19 *33:A *35:C 0
20 *34:B *35:C 0
21 *35:B *35:C 0
22 *36:B *35:C 0
23 *39:D *15:28 0
24 *13:10 *15:28 0
25 *13:16 *35:C 0
*RES
1 *39:Q *15:6 31.2816 
2 *15:6 *15:14 44.1096 
3 *15:14 *45:A 20 
4 *39:Q *15:28 46.2128 
5 *15:28 *34:A 40.6424 
6 *15:28 *35:C 43.3418 
*END

*D_NET *16 0.00473449
*CONN
*I *36:A I *D sg13g2_xnor2_1
*I *46:A I *D sg13g2_buf_1
*I *40:Q O *D sg13g2_dfrbp_1
*CAP
1 *36:A 0.000638284
2 *46:A 0
3 *40:Q 0.00198965
4 *16:10 0.00135137
5 *36:A *38:CLK 0
6 *36:A *40:CLK 0.000127783
7 *16:10 *39:RESET_B 0
8 *16:10 *25:12 0
9 *36:B *36:A 0
10 *40:D *36:A 0.000128578
11 *14:6 *36:A 0
12 *15:14 *16:10 0.000498825
13 *15:28 *36:A 0
*RES
1 *40:Q *16:10 34.8104 
2 *16:10 *46:A 20 
3 *40:Q *36:A 46.7584 
*END

*D_NET *17 0.00202651
*CONN
*P enable_i I
*I *41:A I *D sg13g2_buf_1
*CAP
1 enable_i 0.0007934
2 *41:A 0
3 *17:11 0.0007934
4 *17:11 counter_value_o[1] 0
5 *17:11 *21:10 0.00043971
6 *17:11 *24:10 0
7 *12:11 *17:11 0
*RES
1 enable_i *17:11 47.3392 
2 *17:11 *41:A 20 
*END

*D_NET *18 0.00177831
*CONN
*P reset_n_i I
*I *42:A I *D sg13g2_buf_2
*CAP
1 reset_n_i 0.000747755
2 *42:A 0
3 *18:17 0.000747755
4 *18:17 counter_value_o[2] 7.50649e-05
5 *18:17 counter_value_o[3] 0.000127405
6 *18:17 *25:12 8.03305e-05
*RES
1 reset_n_i *18:17 45.8806 
2 *18:17 *42:A 20 
*END

*D_NET *21 0.00267759
*CONN
*I *35:D I *D sg13g2_nand4_1
*I *31:B I *D sg13g2_nand2_1
*I *33:C I *D sg13g2_nand3_1
*I *30:B I *D sg13g2_xor2_1
*I *41:X O *D sg13g2_buf_1
*CAP
1 *35:D 0.000171149
2 *31:B 0
3 *33:C 8.20237e-05
4 *30:B 0
5 *41:X 0.000325063
6 *21:32 0.000171149
7 *21:18 0.000355906
8 *21:10 0.000598946
9 *21:10 *24:10 0.000101779
10 *21:18 *23:10 0
11 *30:A *21:18 1.54556e-05
12 *32:A *35:D 0
13 *32:B *35:D 0
14 *33:B *21:18 0
15 *35:B *35:D 0
16 *35:C *33:C 0
17 *5:8 *21:10 0
18 *12:11 *33:C 0
19 *12:11 *35:D 0
20 *12:11 *21:10 0
21 *12:11 *21:18 0
22 *13:16 *33:C 0.000265956
23 *13:16 *21:18 2.20968e-05
24 *13:18 *21:18 0.000128351
25 *13:42 *21:10 0
26 *13:42 *21:18 0
27 *17:11 *21:10 0.00043971
*RES
1 *41:X *21:10 43.2648 
2 *21:10 *21:18 22.5344 
3 *21:18 *30:B 20 
4 *21:18 *33:C 21.144 
5 *21:10 *21:32 20 
6 *21:32 *31:B 20 
7 *21:32 *35:D 21.6896 
*END

*D_NET *22 0.00595537
*CONN
*I *40:RESET_B I *D sg13g2_dfrbp_1
*I *38:RESET_B I *D sg13g2_dfrbp_1
*I *37:RESET_B I *D sg13g2_dfrbp_1
*I *39:RESET_B I *D sg13g2_dfrbp_1
*I *42:X O *D sg13g2_buf_2
*CAP
1 *40:RESET_B 2.65377e-05
2 *38:RESET_B 0.000189962
3 *37:RESET_B 0.000271198
4 *39:RESET_B 0.00196994
5 *42:X 0.00196994
6 *22:31 0.000369303
7 *22:19 0.000424001
8 *37:RESET_B *37:CLK 0.000276965
9 *37:RESET_B *27:25 0
10 *38:RESET_B *40:CLK 0.00024328
11 *38:RESET_B *27:25 0
12 *38:RESET_B *29:10 3.24023e-05
13 *39:RESET_B counter_value_o[3] 0.000181839
14 *39:RESET_B *25:12 0
15 *22:31 *27:25 0
16 *34:A *37:RESET_B 0
17 *34:A *22:31 0
18 *35:C *22:31 0
19 *15:6 *39:RESET_B 0
20 *15:28 *39:RESET_B 0
21 *16:10 *39:RESET_B 0
*RES
1 *42:X *39:RESET_B 38.9112 
2 *39:RESET_B *22:19 20 
3 *22:19 *37:RESET_B 23.036 
4 *22:19 *22:31 1.5664 
5 *22:31 *38:RESET_B 21.936 
6 *22:31 *40:RESET_B 20.2992 
*END

*D_NET *23 0.00227136
*CONN
*P counter_value_o[0] O
*I *43:X O *D sg13g2_buf_1
*CAP
1 counter_value_o[0] 0.000460969
2 *43:X 0.000674711
3 *23:10 0.00113568
4 counter_value_o[0] counter_value_o[1] 0
5 *12:11 counter_value_o[0] 0
6 *13:24 *23:10 0
7 *13:42 *23:10 0
8 *21:18 *23:10 0
*RES
1 *43:X *23:10 47.172 
2 *23:10 counter_value_o[0] 23.0008 
*END

*D_NET *24 0.00226278
*CONN
*P counter_value_o[1] O
*I *44:X O *D sg13g2_buf_1
*CAP
1 counter_value_o[1] 0.000460969
2 *44:X 0.000595225
3 *24:10 0.00105619
4 counter_value_o[0] counter_value_o[1] 0
5 *32:A *24:10 0
6 *32:B *24:10 0
7 *47:A *24:10 4.8613e-05
8 *14:27 *24:10 0
9 *17:11 counter_value_o[1] 0
10 *17:11 *24:10 0
11 *21:10 *24:10 0.000101779
*RES
1 *44:X *24:10 45.984 
2 *24:10 counter_value_o[1] 23.0008 
*END

*D_NET *25 0.00204193
*CONN
*P counter_value_o[2] O
*I *45:X O *D sg13g2_buf_1
*CAP
1 counter_value_o[2] 0.000280286
2 *45:X 0.00066298
3 *25:12 0.000943266
4 counter_value_o[2] counter_value_o[3] 0
5 *25:12 counter_value_o[3] 0
6 *39:RESET_B *25:12 0
7 *16:10 *25:12 0
8 *18:17 counter_value_o[2] 7.50649e-05
9 *18:17 *25:12 8.03305e-05
*RES
1 *45:X *25:12 46.0192 
2 *25:12 counter_value_o[2] 21.9448 
*END

*D_NET *26 0.00160804
*CONN
*P counter_value_o[3] O
*I *46:X O *D sg13g2_buf_1
*CAP
1 counter_value_o[3] 0.000649397
2 *46:X 0.000649397
3 counter_value_o[2] counter_value_o[3] 0
4 *39:RESET_B counter_value_o[3] 0.000181839
5 *18:17 counter_value_o[3] 0.000127405
6 *25:12 counter_value_o[3] 0
*RES
1 *46:X counter_value_o[3] 25.852 
*END

*D_NET *27 0.00512011
*CONN
*I *48:A I *D sg13g2_buf_1
*I *49:A I *D sg13g2_buf_1
*I *47:X O *D sg13g2_buf_1
*CAP
1 *48:A 0
2 *49:A 0
3 *47:X 0
4 *27:25 0.00109887
5 *27:14 0.00059553
6 *27:4 0.0016944
7 *27:14 *29:10 0.000929165
8 *27:25 *39:CLK 0.000261222
9 *27:25 *40:CLK 0
10 *27:25 *28:10 0.000540912
11 *27:25 *29:10 0
12 *37:RESET_B *27:25 0
13 *38:RESET_B *27:25 0
14 *14:6 *27:14 0
15 *14:6 *27:25 0
16 *22:31 *27:25 0
*RES
1 *47:X *27:4 20 
2 *27:4 *27:14 46.336 
3 *27:14 *49:A 20 
4 *27:4 *27:25 30.9472 
5 *27:25 *48:A 40 
*END

*D_NET *28 0.00344205
*CONN
*I *39:CLK I *D sg13g2_dfrbp_1
*I *37:CLK I *D sg13g2_dfrbp_1
*I *48:X O *D sg13g2_buf_1
*CAP
1 *39:CLK 0.000267172
2 *37:CLK 0.000575744
3 *48:X 0.000327472
4 *28:10 0.00117039
5 *37:RESET_B *37:CLK 0.000276965
6 *37:D *37:CLK 2.21754e-05
7 *13:10 *37:CLK 0
8 *13:10 *39:CLK 0
9 *13:14 *37:CLK 0
10 *13:16 *37:CLK 0
11 *15:28 *39:CLK 0
12 *27:25 *39:CLK 0.000261222
13 *27:25 *28:10 0.000540912
*RES
1 *48:X *28:10 43.4496 
2 *28:10 *37:CLK 45.5792 
3 *28:10 *39:CLK 42.9216 
*END

*D_NET *29 0.00337385
*CONN
*I *38:CLK I *D sg13g2_dfrbp_1
*I *40:CLK I *D sg13g2_dfrbp_1
*I *49:X O *D sg13g2_buf_1
*CAP
1 *38:CLK 0.000198835
2 *40:CLK 0.000197942
3 *49:X 0.00062383
4 *29:10 0.00102061
5 *36:A *38:CLK 0
6 *36:A *40:CLK 0.000127783
7 *36:B *38:CLK 0
8 *38:RESET_B *40:CLK 0.00024328
9 *38:RESET_B *29:10 3.24023e-05
10 *40:D *38:CLK 0
11 *14:6 *38:CLK 0
12 *15:28 *40:CLK 0
13 *27:14 *29:10 0.000929165
14 *27:25 *40:CLK 0
15 *27:25 *29:10 0
*RES
1 *49:X *29:10 46.7496 
2 *29:10 *40:CLK 42.1648 
3 *29:10 *38:CLK 41.7776 
*END
