*SPEF "ieee 1481-1999"
*DESIGN "counter_board"
*DATE "17:54:48 Wednesday April 02, 2025"
*VENDOR "The OpenROAD Project"
*PROGRAM "OpenROAD"
*VERSION "v2.0-19705-gbe6d1c688"
*DESIGN_FLOW "NAME_SCOPE LOCAL" "PIN_CAP NONE"
*DIVIDER /
*DELIMITER :
*BUS_DELIMITER []
*T_UNIT 1 NS
*C_UNIT 1 PF
*R_UNIT 1 OHM
*L_UNIT 1 HENRY

*NAME_MAP
*1 clock_i
*2 net3
*3 net4
*4 net5
*5 net6
*6 enable_i
*7 n1_o
*8 reset_n_i
*9 counter_0/_00_
*10 counter_0/_01_
*11 counter_0/_02_
*12 counter_0/_03_
*13 counter_0/_04_
*14 counter_0/_05_
*15 counter_0/_06_
*16 counter_0/_07_
*17 counter_0/_08_
*18 counter_0/_09_
*19 counter_0/_10_
*20 counter_0/_11_
*23 net1
*24 net2
*25 counter_value_o[0]
*26 counter_value_o[1]
*27 counter_value_o[2]
*28 counter_value_o[3]
*29 clknet_0_clock_i
*30 clknet_1_0__leaf_clock_i
*31 clknet_1_1__leaf_clock_i
*32 _0_
*33 counter_0/_12_
*34 counter_0/_13_
*35 counter_0/_14_
*36 counter_0/_15_
*37 counter_0/_16_
*38 counter_0/_17_
*39 counter_0/_18_
*40 counter_0/_19_
*41 counter_0/n20_q\[0\]\$_DFFE_PP0P_
*42 counter_0/n20_q\[1\]\$_DFFE_PP0P_
*43 counter_0/n20_q\[2\]\$_DFFE_PP0P_
*44 counter_0/n20_q\[3\]\$_DFFE_PP0P_
*45 input1
*46 input2
*47 output3
*48 output4
*49 output5
*50 output6
*51 clkbuf_0_clock_i
*52 clkbuf_1_0__f_clock_i
*53 clkbuf_1_1__f_clock_i
*54 FILLER_0_0
*55 FILLER_0_7
*56 FILLER_0_14
*57 FILLER_0_21
*58 FILLER_0_28
*59 FILLER_0_35
*60 FILLER_0_42
*61 FILLER_0_49
*62 FILLER_0_56
*63 FILLER_0_63
*64 FILLER_0_70
*65 FILLER_0_77
*66 FILLER_0_84
*67 FILLER_0_91
*68 FILLER_0_98
*69 FILLER_0_105
*70 FILLER_0_112
*71 FILLER_0_119
*72 FILLER_0_123
*73 FILLER_1_0
*74 FILLER_1_7
*75 FILLER_1_14
*76 FILLER_1_21
*77 FILLER_1_28
*78 FILLER_1_35
*79 FILLER_1_42
*80 FILLER_1_49
*81 FILLER_1_56
*82 FILLER_1_63
*83 FILLER_1_70
*84 FILLER_1_77
*85 FILLER_1_84
*86 FILLER_1_91
*87 FILLER_1_98
*88 FILLER_1_105
*89 FILLER_1_112
*90 FILLER_1_119
*91 FILLER_1_123
*92 FILLER_2_0
*93 FILLER_2_7
*94 FILLER_2_14
*95 FILLER_2_21
*96 FILLER_2_28
*97 FILLER_2_35
*98 FILLER_2_42
*99 FILLER_2_49
*100 FILLER_2_56
*101 FILLER_2_63
*102 FILLER_2_70
*103 FILLER_2_77
*104 FILLER_2_84
*105 FILLER_2_91
*106 FILLER_2_98
*107 FILLER_2_105
*108 FILLER_2_112
*109 FILLER_2_119
*110 FILLER_2_123
*111 FILLER_3_0
*112 FILLER_3_7
*113 FILLER_3_14
*114 FILLER_3_21
*115 FILLER_3_28
*116 FILLER_3_35
*117 FILLER_3_42
*118 FILLER_3_49
*119 FILLER_3_56
*120 FILLER_3_63
*121 FILLER_3_70
*122 FILLER_3_77
*123 FILLER_3_84
*124 FILLER_3_91
*125 FILLER_3_98
*126 FILLER_3_105
*127 FILLER_3_112
*128 FILLER_3_119
*129 FILLER_3_123
*130 FILLER_4_4
*131 FILLER_4_11
*132 FILLER_4_18
*133 FILLER_4_25
*134 FILLER_4_32
*135 FILLER_4_39
*136 FILLER_4_46
*137 FILLER_4_53
*138 FILLER_4_60
*139 FILLER_4_67
*140 FILLER_4_74
*141 FILLER_4_81
*142 FILLER_4_88
*143 FILLER_4_95
*144 FILLER_4_102
*145 FILLER_4_109
*146 FILLER_4_116
*147 FILLER_4_123
*148 FILLER_5_0
*149 FILLER_5_28
*150 FILLER_5_35
*151 FILLER_5_42
*152 FILLER_5_49
*153 FILLER_5_56
*154 FILLER_5_63
*155 FILLER_5_70
*156 FILLER_5_77
*157 FILLER_5_84
*158 FILLER_5_91
*159 FILLER_5_98
*160 FILLER_5_105
*161 FILLER_5_112
*162 FILLER_5_119
*163 FILLER_5_123
*164 FILLER_6_4
*165 FILLER_6_50
*166 FILLER_6_57
*167 FILLER_6_64
*168 FILLER_6_71
*169 FILLER_6_78
*170 FILLER_6_85
*171 FILLER_6_92
*172 FILLER_6_99
*173 FILLER_6_106
*174 FILLER_6_113
*175 FILLER_6_120
*176 FILLER_7_0
*177 FILLER_7_59
*178 FILLER_7_61
*179 FILLER_7_66
*180 FILLER_7_73
*181 FILLER_7_80
*182 FILLER_7_87
*183 FILLER_7_93
*184 FILLER_7_100
*185 FILLER_7_107
*186 FILLER_7_114
*187 FILLER_7_120
*188 FILLER_8_0
*189 FILLER_8_32
*190 FILLER_8_39
*191 FILLER_8_46
*192 FILLER_8_53
*193 FILLER_8_60
*194 FILLER_8_67
*195 FILLER_8_74
*196 FILLER_8_81
*197 FILLER_8_88
*198 FILLER_8_95
*199 FILLER_8_102
*200 FILLER_8_109
*201 FILLER_8_116
*202 FILLER_8_123
*203 FILLER_9_12
*204 FILLER_9_17
*205 FILLER_9_24
*206 FILLER_9_31
*207 FILLER_9_38
*208 FILLER_9_45
*209 FILLER_9_52
*210 FILLER_9_59
*211 FILLER_9_66
*212 FILLER_9_73
*213 FILLER_9_80
*214 FILLER_9_87
*215 FILLER_9_94
*216 FILLER_9_101
*217 FILLER_9_108
*218 FILLER_9_115
*219 FILLER_9_122
*220 FILLER_10_0
*221 FILLER_10_7
*222 FILLER_10_14
*223 FILLER_10_21
*224 FILLER_10_28
*225 FILLER_10_35
*226 FILLER_10_42
*227 FILLER_10_49
*228 FILLER_10_56
*229 FILLER_10_63
*230 FILLER_10_70
*231 FILLER_10_77
*232 FILLER_10_84
*233 FILLER_10_91
*234 FILLER_10_98
*235 FILLER_10_105
*236 FILLER_10_112
*237 FILLER_10_119
*238 FILLER_10_123
*239 FILLER_11_0
*240 FILLER_11_7
*241 FILLER_11_14
*242 FILLER_11_21
*243 FILLER_11_28
*244 FILLER_11_35
*245 FILLER_11_42
*246 FILLER_11_49
*247 FILLER_11_56
*248 FILLER_11_63
*249 FILLER_11_70
*250 FILLER_11_77
*251 FILLER_11_84
*252 FILLER_11_91
*253 FILLER_11_98
*254 FILLER_11_105
*255 FILLER_11_112
*256 FILLER_11_119
*257 FILLER_11_123
*258 FILLER_12_0
*259 FILLER_12_7
*260 FILLER_12_14
*261 FILLER_12_21
*262 FILLER_12_28
*263 FILLER_12_35
*264 FILLER_12_42
*265 FILLER_12_49
*266 FILLER_12_56
*267 FILLER_12_63
*268 FILLER_12_70
*269 FILLER_12_77
*270 FILLER_12_84
*271 FILLER_12_91
*272 FILLER_12_98
*273 FILLER_12_105
*274 FILLER_12_112
*275 FILLER_12_119
*276 FILLER_12_123
*277 FILLER_13_0
*278 FILLER_13_7
*279 FILLER_13_14
*280 FILLER_13_21
*281 FILLER_13_28
*282 FILLER_13_35
*283 FILLER_13_42
*284 FILLER_13_49
*285 FILLER_13_56
*286 FILLER_13_63
*287 FILLER_13_70
*288 FILLER_13_77
*289 FILLER_13_84
*290 FILLER_13_91
*291 FILLER_13_98
*292 FILLER_13_105
*293 FILLER_13_112
*294 FILLER_13_119
*295 FILLER_13_123
*296 FILLER_14_0
*297 FILLER_14_7
*298 FILLER_14_14
*299 FILLER_14_21
*300 FILLER_14_28
*301 FILLER_14_35
*302 FILLER_14_42
*303 FILLER_14_49
*304 FILLER_14_56
*305 FILLER_14_63
*306 FILLER_14_70
*307 FILLER_14_77
*308 FILLER_14_84
*309 FILLER_14_91
*310 FILLER_14_98
*311 FILLER_14_105
*312 FILLER_14_112
*313 FILLER_14_119
*314 FILLER_14_123

*PORTS
clock_i I
counter_value_o[0] O
counter_value_o[1] O
counter_value_o[2] O
counter_value_o[3] O
enable_i I
reset_n_i I

*D_NET *1 0.00560199
*CONN
*P clock_i I
*I *51:A I *D sg13g2_buf_1
*CAP
1 clock_i 0.00158987
2 *51:A 0.000191371
3 *1:13 0.00178124
4 *51:A *3:8 0
5 *1:13 *36:B 0
6 *1:13 *37:B 0
7 *1:13 *37:A 0
8 *1:13 *39:B 0
9 *1:13 *2:12 0
10 *1:13 *3:23 0
11 *1:13 *4:30 0.000112679
12 *1:13 *8:9 0.00192683
13 *1:13 *11:8 0
14 *1:13 *14:8 0
15 *1:13 *16:10 0
16 *1:13 *23:29 0
17 *1:13 *25:10 0
18 *1:13 *29:10 0
19 *1:13 *29:16 0
*RES
1 clock_i *1:13 35.9896 
2 *1:13 *51:A 41.7776 
*END

*D_NET *2 0.00552051
*CONN
*I *39:B I *D sg13g2_nand4_1
*I *37:B I *D sg13g2_nand3_1
*I *35:A I *D sg13g2_nand2_1
*I *34:A I *D sg13g2_xor2_1
*I *47:A I *D sg13g2_buf_1
*I *41:Q O *D sg13g2_dfrbp_1
*CAP
1 *39:B 0.000101843
2 *37:B 6.07633e-05
3 *35:A 0.000584364
4 *34:A 0
5 *47:A 0
6 *41:Q 0.000318406
7 *2:23 0.000821091
8 *2:12 0.000629637
9 *2:8 0.000873922
10 *35:A counter_value_o[1] 0.000155189
11 *35:A *35:B 0
12 *35:A *45:A 0.00012839
13 *35:A *48:A 0.000234793
14 *35:A *6:9 0.000504141
15 *35:A *8:9 0.000521395
16 *35:A *10:10 0
17 *35:A *24:10 0.000154867
18 *37:B *33:A 0
19 *37:B *37:A 0
20 *37:B *23:29 0
21 *37:B *23:41 0
22 *39:B *37:A 0
23 *39:B *4:14 0
24 *39:B *4:30 8.59241e-06
25 *39:B *23:41 0.000128618
26 *2:8 *39:A 0
27 *2:8 *4:14 0
28 *2:8 *16:10 0
29 *2:12 *33:A 0.000181572
30 *2:12 *41:D 0
31 *2:12 *23:29 0
32 *2:12 *25:10 0
33 *2:23 *8:9 0.000112932
34 *2:23 *10:10 0
35 *2:23 *25:10 0
36 *1:13 *37:B 0
37 *1:13 *39:B 0
38 *1:13 *2:12 0
*RES
1 *41:Q *2:8 23.2384 
2 *2:8 *2:12 3.8984 
3 *2:12 *47:A 20 
4 *2:12 *2:23 22.0504 
5 *2:23 *34:A 40 
6 *2:23 *35:A 46.5472 
7 *2:8 *37:B 20.7678 
8 *2:8 *39:B 21.7996 
*END

*D_NET *3 0.00341516
*CONN
*I *48:A I *D sg13g2_buf_1
*I *37:A I *D sg13g2_nand3_1
*I *39:A I *D sg13g2_nand4_1
*I *36:A I *D sg13g2_xnor2_1
*I *42:Q O *D sg13g2_dfrbp_1
*CAP
1 *48:A 0.00035076
2 *37:A 4.70776e-05
3 *39:A 2.27782e-05
4 *36:A 0
5 *42:Q 0.00031872
6 *3:31 0.000241206
7 *3:23 0.000571596
8 *3:12 0.000466541
9 *3:8 0.00082993
10 *37:A *15:10 0
11 *37:A *23:29 0
12 *37:A *23:41 2.21754e-05
13 *48:A *35:B 0
14 *48:A *42:RESET_B 0
15 *48:A *14:8 0
16 *48:A *23:19 0
17 *3:8 *40:B 0
18 *3:8 *42:D 0.000181194
19 *3:8 *4:14 0
20 *3:12 *42:RESET_B 0
21 *3:12 *14:8 0
22 *3:23 *36:B 0.00012839
23 *3:23 *41:RESET_B 0
24 *3:23 *42:RESET_B 0
25 *3:23 *15:10 0
26 *3:31 *4:30 0
27 *3:31 *9:21 0
28 *3:31 *29:16 0
29 *35:A *48:A 0.000234793
30 *37:B *37:A 0
31 *39:B *37:A 0
32 *51:A *3:8 0
33 *1:13 *37:A 0
34 *1:13 *3:23 0
35 *2:8 *39:A 0
*RES
1 *42:Q *3:8 43.0448 
2 *3:8 *3:12 21.1968 
3 *3:12 *36:A 20 
4 *3:12 *3:23 22.684 
5 *3:23 *3:31 41.628 
6 *3:31 *39:A 40.2002 
7 *3:23 *37:A 40.4268 
8 *3:8 *48:A 43.0536 
*END

*D_NET *4 0.00635445
*CONN
*I *49:A I *D sg13g2_buf_1
*I *38:A I *D sg13g2_xnor2_1
*I *39:C I *D sg13g2_nand4_1
*I *43:Q O *D sg13g2_dfrbp_1
*CAP
1 *49:A 0.00130884
2 *38:A 2.52799e-05
3 *39:C 0
4 *43:Q 0
5 *4:52 0.00177112
6 *4:30 0.000312543
7 *4:14 0.00113436
8 *4:4 0.00125882
9 *38:A *36:B 0
10 *38:A *40:A 0
11 *49:A *50:A 0
12 *49:A *28:10 0
13 *49:A *31:10 0
14 *4:14 *40:A 0
15 *4:14 *40:B 0.000128161
16 *4:14 *43:D 0
17 *4:14 *44:D 0
18 *4:14 *53:A 0
19 *4:14 *9:21 1.49664e-05
20 *4:14 *16:10 0
21 *4:14 *29:16 0
22 *4:14 *31:10 0
23 *4:14 *31:18 0
24 *4:30 *38:B 2.20968e-05
25 *4:30 *15:10 0.000209336
26 *4:30 *16:10 0
27 *4:30 *23:41 4.76587e-05
28 *4:52 *50:A 0
29 *4:52 *31:10 0
30 *39:B *4:14 0
31 *39:B *4:30 8.59241e-06
32 *1:13 *4:30 0.000112679
33 *2:8 *4:14 0
34 *3:8 *4:14 0
35 *3:31 *4:30 0
*RES
1 *43:Q *4:4 20 
2 *4:4 *4:14 47.2864 
3 *4:14 *4:30 42.937 
4 *4:30 *39:C 20 
5 *4:14 *38:A 20.2728 
6 *4:4 *4:52 44.7256 
7 *4:52 *49:A 31.5544 
*END

*D_NET *5 0.00449365
*CONN
*I *40:A I *D sg13g2_xnor2_1
*I *50:A I *D sg13g2_buf_1
*I *44:Q O *D sg13g2_dfrbp_1
*CAP
1 *40:A 0.000495726
2 *50:A 0.000811162
3 *44:Q 0.00130689
4 *40:A *53:A 0.00145892
5 *50:A *31:10 0.000420956
6 *38:A *40:A 0
7 *49:A *50:A 0
8 *4:14 *40:A 0
9 *4:52 *50:A 0
*RES
1 *44:Q *50:A 47.48 
2 *44:Q *40:A 46.6704 
*END

*D_NET *6 0.0033964
*CONN
*P enable_i I
*I *45:A I *D sg13g2_buf_1
*CAP
1 enable_i 0.00131786
2 *45:A 4.01726e-05
3 *6:9 0.00135803
4 *6:9 counter_value_o[0] 0
5 *6:9 counter_value_o[1] 0
6 *6:9 *8:9 0
7 *6:9 *10:10 4.78029e-05
8 *6:9 *24:10 0
9 *35:A *45:A 0.00012839
10 *35:A *6:9 0.000504141
*RES
1 enable_i *6:9 32.3816 
2 *6:9 *45:A 40.5104 
*END

*D_NET *7 0.000375434
*CONN
*I *33:A I *D sg13g2_inv_2
*I *32:Y O *D sg13g2_inv_2
*CAP
1 *33:A 9.69313e-05
2 *32:Y 9.69313e-05
3 *33:A *23:29 0
4 *37:B *33:A 0
5 *2:12 *33:A 0.000181572
*RES
1 *32:Y *33:A 40.9944 
*END

*D_NET *8 0.00485928
*CONN
*P reset_n_i I
*I *46:A I *D sg13g2_buf_1
*CAP
1 reset_n_i 0.00114906
2 *46:A 0
3 *8:9 0.00114906
4 *8:9 counter_value_o[0] 0
5 *35:A *8:9 0.000521395
6 *1:13 *8:9 0.00192683
7 *2:23 *8:9 0.000112932
8 *6:9 *8:9 0
*RES
1 reset_n_i *8:9 32.6984 
2 *8:9 *46:A 40 
*END

*D_NET *9 0.00254201
*CONN
*I *44:RESET_B I *D sg13g2_dfrbp_1
*I *42:RESET_B I *D sg13g2_dfrbp_1
*I *43:RESET_B I *D sg13g2_dfrbp_1
*I *41:RESET_B I *D sg13g2_dfrbp_1
*I *33:Y O *D sg13g2_inv_2
*CAP
1 *44:RESET_B 0.0001945
2 *42:RESET_B 0.00036273
3 *43:RESET_B 0.0001945
4 *41:RESET_B 0.000245814
5 *33:Y 0
6 *9:21 0.00046048
7 *9:6 0.00106902
8 *41:RESET_B *42:CLK 0
9 *41:RESET_B *23:29 0
10 *41:RESET_B *23:41 0
11 *41:RESET_B *30:10 0
12 *42:RESET_B *23:19 0
13 *42:RESET_B *23:29 0
14 *44:RESET_B *31:18 0
15 *9:21 *29:16 0
16 *48:A *42:RESET_B 0
17 *3:12 *42:RESET_B 0
18 *3:23 *41:RESET_B 0
19 *3:23 *42:RESET_B 0
20 *3:31 *9:21 0
21 *4:14 *9:21 1.49664e-05
*RES
1 *33:Y *9:6 40 
2 *9:6 *41:RESET_B 22.3056 
3 *9:6 *9:21 43.8368 
4 *9:21 *43:RESET_B 20 
5 *9:6 *42:RESET_B 23.0448 
6 *43:RESET_B *44:RESET_B 41.5664 
*END

*D_NET *10 0.00121904
*CONN
*I *41:D I *D sg13g2_dfrbp_1
*I *34:X O *D sg13g2_xor2_1
*CAP
1 *41:D 3.16762e-05
2 *34:X 0.000553942
3 *10:10 0.000585618
4 *41:D *29:16 0
5 *41:D *30:10 0
6 *10:10 *42:CLK 0
7 *10:10 *24:10 0
8 *35:A *10:10 0
9 *2:12 *41:D 0
10 *2:23 *10:10 0
11 *6:9 *10:10 4.78029e-05
*RES
1 *34:X *10:10 44.3208 
2 *10:10 *41:D 40.2992 
*END

*D_NET *11 0.00119289
*CONN
*I *42:D I *D sg13g2_dfrbp_1
*I *36:Y O *D sg13g2_xnor2_1
*CAP
1 *42:D 0.000319117
2 *36:Y 9.75604e-05
3 *11:8 0.000416677
4 *42:D counter_value_o[1] 0
5 *11:8 *14:8 0.000178344
6 *1:13 *11:8 0
7 *3:8 *42:D 0.000181194
*RES
1 *36:Y *11:8 41.012 
2 *11:8 *42:D 42.8336 
*END

*D_NET *12 0.000397852
*CONN
*I *43:D I *D sg13g2_dfrbp_1
*I *38:Y O *D sg13g2_xnor2_1
*CAP
1 *43:D 0.000198926
2 *38:Y 0.000198926
3 *43:D *16:10 0
4 *4:14 *43:D 0
*RES
1 *38:Y *43:D 41.7072 
*END

*D_NET *13 0.000217047
*CONN
*I *44:D I *D sg13g2_dfrbp_1
*I *40:Y O *D sg13g2_xnor2_1
*CAP
1 *44:D 0.000108524
2 *40:Y 0.000108524
3 *44:D *53:A 0
4 *4:14 *44:D 0
*RES
1 *40:Y *44:D 40.9944 
*END

*D_NET *14 0.00112539
*CONN
*I *36:B I *D sg13g2_xnor2_1
*I *35:Y O *D sg13g2_nand2_1
*CAP
1 *36:B 9.29089e-05
2 *35:Y 0.00031642
3 *14:8 0.000409329
4 *38:A *36:B 0
5 *48:A *14:8 0
6 *1:13 *36:B 0
7 *1:13 *14:8 0
8 *3:12 *14:8 0
9 *3:23 *36:B 0.00012839
10 *11:8 *14:8 0.000178344
*RES
1 *35:Y *14:8 42.6752 
2 *14:8 *36:B 40.9944 
*END

*D_NET *15 0.000769437
*CONN
*I *38:B I *D sg13g2_xnor2_1
*I *37:Y O *D sg13g2_nand3_1
*CAP
1 *38:B 3.40313e-05
2 *37:Y 0.000234971
3 *15:10 0.000269002
4 *15:10 *23:41 0
5 *37:A *15:10 0
6 *3:23 *15:10 0
7 *4:30 *38:B 2.20968e-05
8 *4:30 *15:10 0.000209336
*RES
1 *37:Y *15:10 41.892 
2 *15:10 *38:B 40.2992 
*END

*D_NET *16 0.000779049
*CONN
*I *40:B I *D sg13g2_xnor2_1
*I *39:Y O *D sg13g2_nand4_1
*CAP
1 *40:B 8.76634e-05
2 *39:Y 0.00023778
3 *16:10 0.000325444
4 *43:D *16:10 0
5 *1:13 *16:10 0
6 *2:8 *16:10 0
7 *3:8 *40:B 0
8 *4:14 *40:B 0.000128161
9 *4:14 *16:10 0
10 *4:30 *16:10 0
*RES
1 *39:Y *16:10 41.892 
2 *16:10 *40:B 40.9328 
*END

*D_NET *23 0.00322133
*CONN
*I *34:B I *D sg13g2_xor2_1
*I *37:C I *D sg13g2_nand3_1
*I *39:D I *D sg13g2_nand4_1
*I *35:B I *D sg13g2_nand2_1
*I *45:X O *D sg13g2_buf_1
*CAP
1 *34:B 6.91812e-05
2 *37:C 0
3 *39:D 0
4 *35:B 0.000208043
5 *45:X 0
6 *23:41 0.000166461
7 *23:29 0.000555837
8 *23:19 0.000852768
9 *23:4 0.000602254
10 *23:19 *42:CLK 0.000260029
11 *23:19 *24:10 0
12 *23:29 *42:CLK 0.000308306
13 *33:A *23:29 0
14 *35:A *35:B 0
15 *37:B *23:29 0
16 *37:B *23:41 0
17 *37:A *23:29 0
18 *37:A *23:41 2.21754e-05
19 *39:B *23:41 0.000128618
20 *41:RESET_B *23:29 0
21 *41:RESET_B *23:41 0
22 *42:RESET_B *23:19 0
23 *42:RESET_B *23:29 0
24 *48:A *35:B 0
25 *48:A *23:19 0
26 *1:13 *23:29 0
27 *2:12 *23:29 0
28 *4:30 *23:41 4.76587e-05
29 *15:10 *23:41 0
*RES
1 *45:X *23:4 20 
2 *23:4 *35:B 21.7336 
3 *23:4 *23:19 23.5992 
4 *23:19 *23:29 23.4672 
5 *23:29 *23:41 41.7776 
6 *23:41 *39:D 20 
7 *23:29 *37:C 20 
8 *23:19 *34:B 40.5104 
*END

*D_NET *24 0.00194775
*CONN
*I *32:A I *D sg13g2_inv_2
*I *46:X O *D sg13g2_buf_1
*CAP
1 *32:A 0
2 *46:X 0.000595975
3 *24:10 0.000595975
4 *24:10 counter_value_o[1] 0
5 *24:10 *42:CLK 0.000600929
6 *35:A *24:10 0.000154867
7 *6:9 *24:10 0
8 *10:10 *24:10 0
9 *23:19 *24:10 0
*RES
1 *46:X *24:10 45.324 
2 *24:10 *32:A 40 
*END

*D_NET *25 0.00248651
*CONN
*P counter_value_o[0] O
*I *47:X O *D sg13g2_buf_1
*CAP
1 counter_value_o[0] 0.000201014
2 *47:X 0.00104224
3 *25:10 0.00124326
4 *1:13 *25:10 0
5 *2:12 *25:10 0
6 *2:23 *25:10 0
7 *6:9 counter_value_o[0] 0
8 *8:9 counter_value_o[0] 0
*RES
1 *47:X *25:10 49.416 
2 *25:10 counter_value_o[0] 21.3112 
*END

*D_NET *26 0.00290159
*CONN
*P counter_value_o[1] O
*I *48:X O *D sg13g2_buf_1
*CAP
1 counter_value_o[1] 0.0013732
2 *48:X 0.0013732
3 *35:A counter_value_o[1] 0.000155189
4 *42:D counter_value_o[1] 0
5 *6:9 counter_value_o[1] 0
6 *24:10 counter_value_o[1] 0
*RES
1 *48:X counter_value_o[1] 34.3 
*END

*D_NET *27 0.00298996
*CONN
*P counter_value_o[2] O
*I *49:X O *D sg13g2_buf_1
*CAP
1 counter_value_o[2] 0.000992907
2 *49:X 0.000992907
3 counter_value_o[2] counter_value_o[3] 0
4 counter_value_o[2] *28:10 0.00100415
*RES
1 *49:X counter_value_o[2] 30.0144 
*END

*D_NET *28 0.00442993
*CONN
*P counter_value_o[3] O
*I *50:X O *D sg13g2_buf_1
*CAP
1 counter_value_o[3] 0.000590334
2 *50:X 0.00112255
3 *28:10 0.00171289
4 counter_value_o[2] counter_value_o[3] 0
5 counter_value_o[2] *28:10 0.00100415
6 *49:A *28:10 0
*RES
1 *50:X *28:10 31.9592 
2 *28:10 counter_value_o[3] 44.8576 
*END

*D_NET *29 0.00589551
*CONN
*I *53:A I *D sg13g2_buf_1
*I *52:A I *D sg13g2_buf_1
*I *51:X O *D sg13g2_buf_1
*CAP
1 *53:A 0.000521927
2 *52:A 0
3 *51:X 0.000124805
4 *29:16 0.00118805
5 *29:10 0.00183478
6 *53:A *31:10 0.000767042
7 *29:16 *30:10 0
8 *40:A *53:A 0.00145892
9 *41:D *29:16 0
10 *44:D *53:A 0
11 *1:13 *29:10 0
12 *1:13 *29:16 0
13 *3:31 *29:16 0
14 *4:14 *53:A 0
15 *4:14 *29:16 0
16 *9:21 *29:16 0
*RES
1 *51:X *29:10 41.2056 
2 *29:10 *29:16 31.2288 
3 *29:16 *52:A 20 
4 *29:10 *53:A 47.304 
*END

*D_NET *30 0.00258631
*CONN
*I *42:CLK I *D sg13g2_dfrbp_1
*I *41:CLK I *D sg13g2_dfrbp_1
*I *52:X O *D sg13g2_buf_1
*CAP
1 *42:CLK 0.000472939
2 *41:CLK 0
3 *52:X 0.000235586
4 *30:10 0.000708525
5 *41:RESET_B *42:CLK 0
6 *41:RESET_B *30:10 0
7 *41:D *30:10 0
8 *10:10 *42:CLK 0
9 *23:19 *42:CLK 0.000260029
10 *23:29 *42:CLK 0.000308306
11 *24:10 *42:CLK 0.000600929
12 *29:16 *30:10 0
*RES
1 *52:X *30:10 42.2088 
2 *30:10 *41:CLK 40 
3 *30:10 *42:CLK 44.8928 
*END

*D_NET *31 0.00317871
*CONN
*I *44:CLK I *D sg13g2_dfrbp_1
*I *43:CLK I *D sg13g2_dfrbp_1
*I *53:X O *D sg13g2_buf_1
*CAP
1 *44:CLK 0
2 *43:CLK 0
3 *53:X 0.000543722
4 *31:18 0.000451633
5 *31:10 0.000995355
6 *44:RESET_B *31:18 0
7 *49:A *31:10 0
8 *50:A *31:10 0.000420956
9 *53:A *31:10 0.000767042
10 *4:14 *31:10 0
11 *4:14 *31:18 0
12 *4:52 *31:10 0
*RES
1 *53:X *31:10 26.4416 
2 *31:10 *31:18 43.9248 
3 *31:18 *43:CLK 20 
4 *31:10 *44:CLK 20 
*END
