*SPEF "ieee 1481-1999"
*DESIGN "counter_board"
*DATE "16:28:08 Monday July 28, 2025"
*VENDOR "The OpenROAD Project"
*PROGRAM "OpenROAD"
*VERSION "v2.0-23079-g93b6f40ec"
*DESIGN_FLOW "NAME_SCOPE LOCAL" "PIN_CAP NONE"
*DIVIDER /
*DELIMITER :
*BUS_DELIMITER []
*T_UNIT 1 NS
*C_UNIT 1 PF
*R_UNIT 1 OHM
*L_UNIT 1 HENRY

*NAME_MAP
*1 clock_i
*2 net3
*3 net4
*4 net5
*5 net6
*6 enable_i
*7 n1
*8 reset_n_i
*9 counter_0/_00_
*10 counter_0/_01_
*11 counter_0/_02_
*12 counter_0/_03_
*13 counter_0/_04_
*14 counter_0/_05_
*15 counter_0/_06_
*16 counter_0/_07_
*17 counter_0/_08_
*18 counter_0/_09_
*19 counter_0/_10_
*20 counter_0/_11_
*23 net1
*24 net2
*25 counter_value_o[0]
*26 counter_value_o[1]
*27 counter_value_o[2]
*28 counter_value_o[3]
*29 clknet_0_clock_i
*30 clknet_1_0__leaf_clock_i
*31 clknet_1_1__leaf_clock_i
*32 _0_
*33 counter_0/_12_
*34 counter_0/_13_
*35 counter_0/_14_
*36 counter_0/_15_
*37 counter_0/_16_
*38 counter_0/_17_
*39 counter_0/_18_
*40 counter_0/_19_
*41 counter_0/n20\[0\]\$_DFFE_PP0P_
*42 counter_0/n20\[1\]\$_DFFE_PP0P_
*43 counter_0/n20\[2\]\$_DFFE_PP0P_
*44 counter_0/n20\[3\]\$_DFFE_PP0P_
*45 input1
*46 input2
*47 output3
*48 output4
*49 output5
*50 output6
*51 clkbuf_0_clock_i
*52 clkbuf_1_0__f_clock_i
*53 clkbuf_1_1__f_clock_i
*54 FILLER_0_0
*55 FILLER_0_7
*56 FILLER_0_14
*57 FILLER_0_21
*58 FILLER_0_28
*59 FILLER_0_35
*60 FILLER_0_42
*61 FILLER_0_49
*62 FILLER_0_56
*63 FILLER_0_63
*64 FILLER_0_70
*65 FILLER_0_77
*66 FILLER_0_84
*67 FILLER_0_91
*68 FILLER_0_98
*69 FILLER_0_105
*70 FILLER_0_112
*71 FILLER_0_119
*72 FILLER_0_123
*73 FILLER_1_0
*74 FILLER_1_7
*75 FILLER_1_14
*76 FILLER_1_21
*77 FILLER_1_28
*78 FILLER_1_35
*79 FILLER_1_42
*80 FILLER_1_49
*81 FILLER_1_56
*82 FILLER_1_63
*83 FILLER_1_70
*84 FILLER_1_77
*85 FILLER_1_84
*86 FILLER_1_91
*87 FILLER_1_98
*88 FILLER_1_105
*89 FILLER_1_112
*90 FILLER_1_119
*91 FILLER_1_123
*92 FILLER_2_0
*93 FILLER_2_7
*94 FILLER_2_14
*95 FILLER_2_21
*96 FILLER_2_28
*97 FILLER_2_35
*98 FILLER_2_42
*99 FILLER_2_49
*100 FILLER_2_56
*101 FILLER_2_63
*102 FILLER_2_70
*103 FILLER_2_77
*104 FILLER_2_84
*105 FILLER_2_91
*106 FILLER_2_98
*107 FILLER_2_105
*108 FILLER_2_112
*109 FILLER_2_119
*110 FILLER_2_123
*111 FILLER_3_0
*112 FILLER_3_7
*113 FILLER_3_14
*114 FILLER_3_21
*115 FILLER_3_28
*116 FILLER_3_35
*117 FILLER_3_42
*118 FILLER_3_49
*119 FILLER_3_56
*120 FILLER_3_63
*121 FILLER_3_70
*122 FILLER_3_77
*123 FILLER_3_84
*124 FILLER_3_91
*125 FILLER_3_98
*126 FILLER_3_105
*127 FILLER_3_112
*128 FILLER_3_119
*129 FILLER_3_123
*130 FILLER_4_0
*131 FILLER_4_7
*132 FILLER_4_14
*133 FILLER_4_21
*134 FILLER_4_28
*135 FILLER_4_35
*136 FILLER_4_42
*137 FILLER_4_49
*138 FILLER_4_56
*139 FILLER_4_63
*140 FILLER_4_70
*141 FILLER_4_77
*142 FILLER_4_84
*143 FILLER_4_91
*144 FILLER_4_98
*145 FILLER_4_105
*146 FILLER_4_112
*147 FILLER_4_119
*148 FILLER_4_123
*149 FILLER_5_0
*150 FILLER_5_7
*151 FILLER_5_14
*152 FILLER_5_21
*153 FILLER_5_28
*154 FILLER_5_35
*155 FILLER_5_42
*156 FILLER_5_49
*157 FILLER_5_56
*158 FILLER_5_63
*159 FILLER_5_70
*160 FILLER_5_77
*161 FILLER_5_84
*162 FILLER_5_91
*163 FILLER_5_98
*164 FILLER_5_105
*165 FILLER_5_112
*166 FILLER_5_119
*167 FILLER_5_123
*168 FILLER_6_0
*169 FILLER_6_7
*170 FILLER_6_14
*171 FILLER_6_21
*172 FILLER_6_28
*173 FILLER_6_35
*174 FILLER_6_42
*175 FILLER_6_49
*176 FILLER_6_51
*177 FILLER_6_65
*178 FILLER_6_112
*179 FILLER_6_119
*180 FILLER_6_123
*181 FILLER_7_0
*182 FILLER_7_7
*183 FILLER_7_14
*184 FILLER_7_21
*185 FILLER_7_28
*186 FILLER_7_34
*187 FILLER_7_41
*188 FILLER_7_45
*189 FILLER_7_50
*190 FILLER_7_112
*191 FILLER_7_114
*192 FILLER_7_119
*193 FILLER_8_0
*194 FILLER_8_7
*195 FILLER_8_14
*196 FILLER_8_21
*197 FILLER_8_28
*198 FILLER_8_35
*199 FILLER_8_42
*200 FILLER_8_47
*201 FILLER_8_57
*202 FILLER_8_69
*203 FILLER_8_104
*204 FILLER_8_110
*205 FILLER_8_117
*206 FILLER_9_0
*207 FILLER_9_7
*208 FILLER_9_14
*209 FILLER_9_21
*210 FILLER_9_28
*211 FILLER_9_35
*212 FILLER_9_42
*213 FILLER_9_49
*214 FILLER_9_56
*215 FILLER_9_63
*216 FILLER_9_70
*217 FILLER_9_79
*218 FILLER_9_86
*219 FILLER_9_93
*220 FILLER_9_100
*221 FILLER_9_107
*222 FILLER_9_114
*223 FILLER_9_121
*224 FILLER_9_123
*225 FILLER_10_0
*226 FILLER_10_7
*227 FILLER_10_14
*228 FILLER_10_21
*229 FILLER_10_28
*230 FILLER_10_35
*231 FILLER_10_42
*232 FILLER_10_49
*233 FILLER_10_56
*234 FILLER_10_63
*235 FILLER_10_70
*236 FILLER_10_77
*237 FILLER_10_84
*238 FILLER_10_91
*239 FILLER_10_98
*240 FILLER_10_105
*241 FILLER_10_112
*242 FILLER_10_119
*243 FILLER_10_123
*244 FILLER_11_0
*245 FILLER_11_7
*246 FILLER_11_14
*247 FILLER_11_21
*248 FILLER_11_28
*249 FILLER_11_35
*250 FILLER_11_42
*251 FILLER_11_49
*252 FILLER_11_56
*253 FILLER_11_60
*254 FILLER_11_66
*255 FILLER_11_73
*256 FILLER_11_80
*257 FILLER_11_87
*258 FILLER_11_94
*259 FILLER_11_101
*260 FILLER_11_108
*261 FILLER_11_115
*262 FILLER_11_122
*263 FILLER_12_0
*264 FILLER_12_7
*265 FILLER_12_14
*266 FILLER_12_21
*267 FILLER_12_28
*268 FILLER_12_35
*269 FILLER_12_42
*270 FILLER_12_49
*271 FILLER_12_56
*272 FILLER_12_63
*273 FILLER_12_70
*274 FILLER_12_77
*275 FILLER_12_84
*276 FILLER_12_91
*277 FILLER_12_98
*278 FILLER_12_105
*279 FILLER_12_112
*280 FILLER_12_119
*281 FILLER_12_123
*282 FILLER_13_0
*283 FILLER_13_7
*284 FILLER_13_14
*285 FILLER_13_21
*286 FILLER_13_28
*287 FILLER_13_35
*288 FILLER_13_42
*289 FILLER_13_49
*290 FILLER_13_56
*291 FILLER_13_63
*292 FILLER_13_70
*293 FILLER_13_77
*294 FILLER_13_84
*295 FILLER_13_91
*296 FILLER_13_98
*297 FILLER_13_105
*298 FILLER_13_112
*299 FILLER_13_119
*300 FILLER_13_123
*301 FILLER_14_0
*302 FILLER_14_7
*303 FILLER_14_14
*304 FILLER_14_21
*305 FILLER_14_28
*306 FILLER_14_35
*307 FILLER_14_42
*308 FILLER_14_49
*309 FILLER_14_56
*310 FILLER_14_63
*311 FILLER_14_70
*312 FILLER_14_77
*313 FILLER_14_84
*314 FILLER_14_91
*315 FILLER_14_98
*316 FILLER_14_105
*317 FILLER_14_112
*318 FILLER_14_119
*319 FILLER_14_123

*PORTS
clock_i I
counter_value_o[0] O
counter_value_o[1] O
counter_value_o[2] O
counter_value_o[3] O
enable_i I
reset_n_i I

*D_NET *1 0.0066428
*CONN
*P clock_i I
*I *51:A I *D sg13g2_buf_2
*CAP
1 clock_i 0.00330207
2 *51:A 1.93331e-05
3 *1:13 0.0033214
4 *1:13 *36:A 0
5 *1:13 *38:A 0
6 *1:13 *39:C 0
7 *1:13 *41:RESET_B 0
8 *1:13 *42:CLK 0
9 *1:13 *42:RESET_B 0
10 *1:13 *44:RESET_B 0
11 *1:13 *45:A 0
12 *1:13 *46:A 0
13 *1:13 *3:8 0
14 *1:13 *3:14 0
15 *1:13 *9:20 0
16 *1:13 *15:10 0
17 *1:13 *23:6 0
18 *1:13 *23:17 0
*RES
1 clock_i *1:13 49.6912 
2 *1:13 *51:A 40.1342 
*END

*D_NET *2 0.0054097
*CONN
*I *34:A I *D sg13g2_xor2_1
*I *35:A I *D sg13g2_nand2_1
*I *37:B I *D sg13g2_nand3_1
*I *39:B I *D sg13g2_nand4_1
*I *47:A I *D sg13g2_buf_1
*I *41:Q O *D sg13g2_dfrbp_1
*CAP
1 *34:A 0
2 *35:A 0
3 *37:B 4.3548e-05
4 *39:B 0.000228778
5 *47:A 0.000121795
6 *41:Q 0
7 *2:37 0.000668168
8 *2:31 0.000704677
9 *2:25 0.00118288
10 *2:4 0.000995843
11 *37:B *36:A 0
12 *37:B *37:A 0
13 *37:B *39:D 0
14 *39:B *36:A 0
15 *39:B *39:C 0
16 *39:B *39:D 0.000288281
17 *39:B *40:B 0
18 *39:B *3:14 0
19 *47:A *4:12 0
20 *47:A *29:29 0
21 *2:25 *34:B 0.00012156
22 *2:25 *41:CLK 0.000713821
23 *2:25 *4:12 0
24 *2:25 *29:14 0
25 *2:25 *29:29 0
26 *2:31 *34:B 7.51291e-05
27 *2:31 *42:RESET_B 0
28 *2:31 *23:19 0
29 *2:37 *36:A 0
30 *2:37 *36:B 2.20968e-05
31 *2:37 *11:8 0
32 *2:37 *14:8 0.000243117
33 *2:37 *23:19 0
*RES
1 *41:Q *2:4 20 
2 *2:4 *47:A 21.2056 
3 *2:4 *2:25 9.9264 
4 *2:25 *2:31 23.1328 
5 *2:31 *2:37 23.6872 
6 *2:37 *39:B 22.6136 
7 *2:37 *37:B 20.4378 
8 *2:31 *35:A 40 
9 *2:25 *34:A 20 
*END

*D_NET *3 0.00373222
*CONN
*I *48:A I *D sg13g2_buf_1
*I *39:A I *D sg13g2_nand4_1
*I *37:A I *D sg13g2_nand3_1
*I *36:A I *D sg13g2_xnor2_1
*I *42:Q O *D sg13g2_dfrbp_1
*CAP
1 *48:A 0.000669089
2 *39:A 0.000191981
3 *37:A 6.45908e-05
4 *36:A 0.000244826
5 *42:Q 0
6 *3:14 0.000626376
7 *3:8 0.000728495
8 *3:4 0.000888645
9 *36:A *39:D 0
10 *36:A *15:10 7.53965e-05
11 *37:A *39:C 0
12 *37:A *39:D 9.20281e-05
13 *39:A *39:C 2.21754e-05
14 *39:A *40:B 0
15 *48:A *40:A 0
16 *48:A *43:RESET_B 0
17 *48:A *44:CLK 0
18 *48:A *4:12 0
19 *48:A *9:20 0
20 *48:A *31:6 0
21 *3:8 *40:A 0
22 *3:8 *40:B 0
23 *3:8 *9:20 0
24 *3:14 *39:C 0
25 *3:14 *39:D 0
26 *3:14 *15:10 0.000128618
27 *37:B *36:A 0
28 *37:B *37:A 0
29 *39:B *36:A 0
30 *39:B *3:14 0
31 *1:13 *36:A 0
32 *1:13 *3:8 0
33 *1:13 *3:14 0
34 *2:37 *36:A 0
*RES
1 *42:Q *3:4 20 
2 *3:4 *3:8 1.9976 
3 *3:8 *3:14 2.7456 
4 *3:14 *36:A 22.4464 
5 *3:14 *37:A 20.8228 
6 *3:8 *39:A 21.7446 
7 *3:4 *48:A 26.4592 
*END

*D_NET *4 0.00404218
*CONN
*I *49:A I *D sg13g2_buf_1
*I *38:A I *D sg13g2_xnor2_1
*I *39:C I *D sg13g2_nand4_1
*I *43:Q O *D sg13g2_dfrbp_1
*CAP
1 *49:A 0.000382292
2 *38:A 0.000154695
3 *39:C 0.000360544
4 *43:Q 0
5 *4:12 0.00117513
6 *4:4 0.00104218
7 *38:A *15:10 0
8 *39:C *15:10 0
9 *49:A counter_value_o[0] 0
10 *49:A counter_value_o[3] 0
11 *49:A *5:26 0
12 *49:A *26:10 0
13 *4:12 *41:D 0
14 *4:12 *43:RESET_B 0.000181572
15 *4:12 *43:D 0.000340748
16 *4:12 *9:20 0.000382842
17 *37:A *39:C 0
18 *39:B *39:C 0
19 *39:A *39:C 2.21754e-05
20 *47:A *4:12 0
21 *48:A *4:12 0
22 *1:13 *38:A 0
23 *1:13 *39:C 0
24 *2:25 *4:12 0
25 *3:14 *39:C 0
*RES
1 *43:Q *4:4 20 
2 *4:4 *4:12 27.6032 
3 *4:12 *39:C 42.9964 
4 *4:12 *38:A 41.5664 
5 *4:4 *49:A 23.6872 
*END

*D_NET *5 0.00233177
*CONN
*I *50:A I *D sg13g2_buf_1
*I *40:A I *D sg13g2_xnor2_1
*I *44:Q O *D sg13g2_dfrbp_1
*CAP
1 *50:A 0
2 *40:A 0.000773687
3 *44:Q 0.00114193
4 *5:26 0.000368241
5 *40:A *40:B 0
6 *40:A *44:CLK 0
7 *40:A *44:D 4.79124e-05
8 *40:A *31:6 0
9 *5:26 *26:10 0
10 *5:26 *29:29 0
11 *48:A *40:A 0
12 *49:A *5:26 0
13 *3:8 *40:A 0
*RES
1 *44:Q *40:A 46.7584 
2 *44:Q *5:26 43.3968 
3 *5:26 *50:A 40 
*END

*D_NET *6 0.00496459
*CONN
*P enable_i I
*I *45:A I *D sg13g2_buf_1
*CAP
1 enable_i 0.0021918
2 *45:A 0.0021918
3 *45:A *33:A 0
4 *45:A *35:B 0
5 *45:A *46:A 0
6 *45:A *24:10 0.000580996
7 *1:13 *45:A 0
*RES
1 enable_i *45:A 39.0872 
*END

*D_NET *7 0.000342359
*CONN
*I *33:A I *D sg13g2_inv_4
*I *32:Y O *D sg13g2_inv_2
*CAP
1 *33:A 0.00017118
2 *32:Y 0.00017118
3 *33:A *23:6 0
4 *45:A *33:A 0
*RES
1 *32:Y *33:A 41.8392 
*END

*D_NET *8 0.00434055
*CONN
*P reset_n_i I
*I *46:A I *D sg13g2_buf_1
*CAP
1 reset_n_i 0.00217027
2 *46:A 0.00217027
3 *45:A *46:A 0
4 *1:13 *46:A 0
*RES
1 reset_n_i *46:A 35.2504 
*END

*D_NET *9 0.00277313
*CONN
*I *44:RESET_B I *D sg13g2_dfrbp_1
*I *43:RESET_B I *D sg13g2_dfrbp_1
*I *41:RESET_B I *D sg13g2_dfrbp_1
*I *42:RESET_B I *D sg13g2_dfrbp_1
*I *33:Y O *D sg13g2_inv_4
*CAP
1 *44:RESET_B 0.000182259
2 *43:RESET_B 0.000272144
3 *41:RESET_B 0.000209958
4 *42:RESET_B 0.000451732
5 *33:Y 0.000325535
6 *9:20 0.000426039
7 *42:RESET_B *34:B 0
8 *42:RESET_B *23:17 0.000341046
9 *44:RESET_B *31:19 0
10 *48:A *43:RESET_B 0
11 *48:A *9:20 0
12 *1:13 *41:RESET_B 0
13 *1:13 *42:RESET_B 0
14 *1:13 *44:RESET_B 0
15 *1:13 *9:20 0
16 *2:31 *42:RESET_B 0
17 *3:8 *9:20 0
18 *4:12 *43:RESET_B 0.000181572
19 *4:12 *9:20 0.000382842
*RES
1 *33:Y *42:RESET_B 23.4144 
2 *42:RESET_B *9:20 1.5224 
3 *9:20 *41:RESET_B 41.936 
4 *9:20 *43:RESET_B 0.8888 
5 *43:RESET_B *44:RESET_B 41.5664 
*END

*D_NET *10 0.000938743
*CONN
*I *41:D I *D sg13g2_dfrbp_1
*I *34:X O *D sg13g2_xor2_1
*CAP
1 *41:D 0.000298754
2 *34:X 0.000298754
3 *41:D *34:B 0
4 *41:D *38:B 0.000341235
5 *41:D *41:CLK 0
6 *41:D *43:D 0
7 *4:12 *41:D 0
*RES
1 *34:X *41:D 42.8952 
*END

*D_NET *11 0.000292369
*CONN
*I *42:D I *D sg13g2_dfrbp_1
*I *36:Y O *D sg13g2_xnor2_1
*CAP
1 *42:D 0
2 *36:Y 0.000146184
3 *11:8 0.000146184
4 *11:8 *23:19 0
5 *2:37 *11:8 0
*RES
1 *36:Y *11:8 41.1968 
2 *11:8 *42:D 40 
*END

*D_NET *12 0.000770363
*CONN
*I *43:D I *D sg13g2_dfrbp_1
*I *38:Y O *D sg13g2_xnor2_1
*CAP
1 *43:D 0.000214807
2 *38:Y 0.000214807
3 *43:D *41:CLK 0
4 *41:D *43:D 0
5 *4:12 *43:D 0.000340748
*RES
1 *38:Y *43:D 42.3672 
*END

*D_NET *13 0.000222286
*CONN
*I *44:D I *D sg13g2_dfrbp_1
*I *40:Y O *D sg13g2_xnor2_1
*CAP
1 *44:D 8.71869e-05
2 *40:Y 8.71869e-05
3 *44:D *40:B 0
4 *40:A *44:D 4.79124e-05
*RES
1 *40:Y *44:D 40.7832 
*END

*D_NET *14 0.000595506
*CONN
*I *36:B I *D sg13g2_xnor2_1
*I *35:Y O *D sg13g2_nand2_1
*CAP
1 *36:B 3.43251e-05
2 *35:Y 0.000130821
3 *14:8 0.000165146
4 *2:37 *36:B 2.20968e-05
5 *2:37 *14:8 0.000243117
*RES
1 *35:Y *14:8 41.3816 
2 *14:8 *36:B 40.2992 
*END

*D_NET *15 0.00171892
*CONN
*I *38:B I *D sg13g2_xnor2_1
*I *37:Y O *D sg13g2_nand3_1
*CAP
1 *38:B 6.31565e-05
2 *37:Y 0.000353061
3 *15:10 0.000416218
4 *38:B *41:CLK 0.000341235
5 *15:10 *42:CLK 0
6 *15:10 *23:19 0
7 *36:A *15:10 7.53965e-05
8 *38:A *15:10 0
9 *39:C *15:10 0
10 *41:D *38:B 0.000341235
11 *1:13 *15:10 0
12 *3:14 *15:10 0.000128618
*RES
1 *37:Y *15:10 43.4936 
2 *15:10 *38:B 41.3552 
*END

*D_NET *16 0.000350652
*CONN
*I *40:B I *D sg13g2_xnor2_1
*I *39:Y O *D sg13g2_nand4_1
*CAP
1 *40:B 0.000175326
2 *39:Y 0.000175326
3 *39:B *40:B 0
4 *39:A *40:B 0
5 *40:A *40:B 0
6 *44:D *40:B 0
7 *3:8 *40:B 0
*RES
1 *39:Y *40:B 41.4784 
*END

*D_NET *23 0.00278836
*CONN
*I *34:B I *D sg13g2_xor2_1
*I *37:C I *D sg13g2_nand3_1
*I *39:D I *D sg13g2_nand4_1
*I *35:B I *D sg13g2_nand2_1
*I *45:X O *D sg13g2_buf_1
*CAP
1 *34:B 0.000251166
2 *37:C 0
3 *39:D 0.000197109
4 *35:B 2.52799e-05
5 *45:X 7.96634e-05
6 *23:19 0.000418286
7 *23:17 0.000622058
8 *23:6 0.000254659
9 *34:B *41:CLK 0
10 *34:B *42:CLK 0
11 *23:17 *42:CLK 2.20968e-05
12 *33:A *23:6 0
13 *36:A *39:D 0
14 *37:B *39:D 0
15 *37:A *39:D 9.20281e-05
16 *39:B *39:D 0.000288281
17 *41:D *34:B 0
18 *42:RESET_B *34:B 0
19 *42:RESET_B *23:17 0.000341046
20 *45:A *35:B 0
21 *1:13 *23:6 0
22 *1:13 *23:17 0
23 *2:25 *34:B 0.00012156
24 *2:31 *34:B 7.51291e-05
25 *2:31 *23:19 0
26 *2:37 *23:19 0
27 *3:14 *39:D 0
28 *11:8 *23:19 0
29 *15:10 *23:19 0
*RES
1 *45:X *23:6 20.8272 
2 *23:6 *35:B 20.2728 
3 *23:6 *23:17 21.7776 
4 *23:17 *23:19 0.924 
5 *23:19 *39:D 42.2 
6 *23:19 *37:C 40 
7 *23:17 *34:B 42.4024 
*END

*D_NET *24 0.00113383
*CONN
*I *32:A I *D sg13g2_inv_2
*I *46:X O *D sg13g2_buf_1
*CAP
1 *32:A 0
2 *46:X 0.000276417
3 *24:10 0.000276417
4 *45:A *24:10 0.000580996
*RES
1 *46:X *24:10 43.5024 
2 *24:10 *32:A 40 
*END

*D_NET *25 0.00254671
*CONN
*P counter_value_o[0] O
*I *47:X O *D sg13g2_buf_1
*CAP
1 counter_value_o[0] 0.00127335
2 *47:X 0.00127335
3 counter_value_o[0] counter_value_o[1] 0
4 counter_value_o[0] counter_value_o[2] 0
5 counter_value_o[0] counter_value_o[3] 0
6 *49:A counter_value_o[0] 0
*RES
1 *47:X counter_value_o[0] 33.0944 
*END

*D_NET *26 0.00335115
*CONN
*P counter_value_o[1] O
*I *48:X O *D sg13g2_buf_1
*CAP
1 counter_value_o[1] 0.00100884
2 *48:X 0.000402966
3 *26:10 0.0014118
4 counter_value_o[1] counter_value_o[2] 0
5 *26:10 counter_value_o[3] 0.000527547
6 counter_value_o[0] counter_value_o[1] 0
7 *49:A *26:10 0
8 *5:26 *26:10 0
*RES
1 *48:X *26:10 44.4 
2 *26:10 counter_value_o[1] 27.8584 
*END

*D_NET *27 0.00309898
*CONN
*P counter_value_o[2] O
*I *49:X O *D sg13g2_buf_1
*CAP
1 counter_value_o[2] 0.00115405
2 *49:X 0.00115405
3 counter_value_o[2] counter_value_o[3] 0.000790889
4 counter_value_o[0] counter_value_o[2] 0
5 counter_value_o[1] counter_value_o[2] 0
*RES
1 *49:X counter_value_o[2] 28.8088 
*END

*D_NET *28 0.00334097
*CONN
*P counter_value_o[3] O
*I *50:X O *D sg13g2_buf_1
*CAP
1 counter_value_o[3] 0.00101127
2 *50:X 0.00101127
3 counter_value_o[0] counter_value_o[3] 0
4 counter_value_o[2] counter_value_o[3] 0.000790889
5 *49:A counter_value_o[3] 0
6 *26:10 counter_value_o[3] 0.000527547
*RES
1 *50:X counter_value_o[3] 30.2256 
*END

*D_NET *29 0.00366031
*CONN
*I *53:A I *D sg13g2_buf_2
*I *52:A I *D sg13g2_buf_2
*I *51:X O *D sg13g2_buf_2
*CAP
1 *53:A 1.74517e-05
2 *52:A 0
3 *51:X 0
4 *29:29 0.00127782
5 *29:14 0.000552332
6 *29:4 0.0018127
7 *29:14 *30:10 0
8 *47:A *29:29 0
9 *2:25 *29:14 0
10 *2:25 *29:29 0
11 *5:26 *29:29 0
*RES
1 *51:X *29:4 20 
2 *29:4 *29:14 45.5374 
3 *29:14 *52:A 20 
4 *29:4 *29:29 33.1824 
5 *29:29 *53:A 40.1342 
*END

*D_NET *30 0.00354744
*CONN
*I *41:CLK I *D sg13g2_dfrbp_1
*I *42:CLK I *D sg13g2_dfrbp_1
*I *52:X O *D sg13g2_buf_2
*CAP
1 *41:CLK 0.000451305
2 *42:CLK 0.000287336
3 *52:X 0.000496504
4 *30:10 0.00123515
5 *34:B *41:CLK 0
6 *34:B *42:CLK 0
7 *38:B *41:CLK 0.000341235
8 *41:D *41:CLK 0
9 *43:D *41:CLK 0
10 *1:13 *42:CLK 0
11 *2:25 *41:CLK 0.000713821
12 *15:10 *42:CLK 0
13 *23:17 *42:CLK 2.20968e-05
14 *29:14 *30:10 0
*RES
1 *52:X *30:10 45.0864 
2 *30:10 *42:CLK 42.2616 
3 *30:10 *41:CLK 45.2184 
*END

*D_NET *31 0.00169067
*CONN
*I *43:CLK I *D sg13g2_dfrbp_1
*I *44:CLK I *D sg13g2_dfrbp_1
*I *53:X O *D sg13g2_buf_2
*CAP
1 *43:CLK 0
2 *44:CLK 4.08689e-05
3 *53:X 0.00058154
4 *31:19 0.000222929
5 *31:6 0.000845337
6 *40:A *44:CLK 0
7 *40:A *31:6 0
8 *44:RESET_B *31:19 0
9 *48:A *44:CLK 0
10 *48:A *31:6 0
*RES
1 *53:X *31:6 24.84 
2 *31:6 *44:CLK 20.2992 
3 *31:6 *31:19 41.936 
4 *31:19 *43:CLK 20 
*END
