*SPEF "ieee 1481-1999"
*DESIGN "counter_board"
*DATE "19:34:55 Saturday December 07, 2024"
*VENDOR "The OpenROAD Project"
*PROGRAM "OpenROAD"
*VERSION "v2.0-17490-g59ec8fed8"
*DESIGN_FLOW "NAME_SCOPE LOCAL" "PIN_CAP NONE"
*DIVIDER /
*DELIMITER :
*BUS_DELIMITER []
*T_UNIT 1 NS
*C_UNIT 1 PF
*R_UNIT 1 OHM
*L_UNIT 1 HENRY

*NAME_MAP
*1 _00_
*2 _01_
*3 _02_
*4 _03_
*5 _04_
*6 _05_
*7 clock_i
*8 counter_0\.n16_o\[0\]
*9 counter_0\.n16_o\[1\]
*10 counter_0\.n16_o\[2\]
*11 counter_0\.n16_o\[3\]
*12 counter_value_o[0]
*13 counter_value_o[1]
*14 counter_value_o[2]
*15 counter_value_o[3]
*16 enable_i
*17 reset_n_i
*20 net1
*21 net2
*22 net3
*23 net4
*24 net5
*25 clknet_0_clock_i
*26 clknet_1_0__leaf_clock_i
*27 clknet_1_1__leaf_clock_i
*28 _06_
*29 _07_
*30 _08_
*31 _09_
*32 _10_
*33 _11_
*34 counter_0\.n18_q\[0\]\$_DFF_PN0_
*35 counter_0\.n18_q\[1\]\$_DFF_PN0_
*36 counter_0\.n18_q\[2\]\$_DFF_PN0_
*37 counter_0\.n18_q\[3\]\$_DFF_PN0_
*38 input1
*39 output2
*40 output3
*41 output4
*42 output5
*43 clkbuf_0_clock_i
*44 clkbuf_1_0__f_clock_i
*45 clkbuf_1_1__f_clock_i
*46 FILLER_0_0
*47 FILLER_0_7
*48 FILLER_0_14
*49 FILLER_0_21
*50 FILLER_0_28
*51 FILLER_0_35
*52 FILLER_0_42
*53 FILLER_0_49
*54 FILLER_0_56
*55 FILLER_0_63
*56 FILLER_0_70
*57 FILLER_0_77
*58 FILLER_0_84
*59 FILLER_0_91
*60 FILLER_0_98
*61 FILLER_0_105
*62 FILLER_0_112
*63 FILLER_0_119
*64 FILLER_0_123
*65 FILLER_1_0
*66 FILLER_1_7
*67 FILLER_1_14
*68 FILLER_1_21
*69 FILLER_1_28
*70 FILLER_1_35
*71 FILLER_1_42
*72 FILLER_1_49
*73 FILLER_1_56
*74 FILLER_1_63
*75 FILLER_1_70
*76 FILLER_1_77
*77 FILLER_1_84
*78 FILLER_1_91
*79 FILLER_1_98
*80 FILLER_1_105
*81 FILLER_1_112
*82 FILLER_1_119
*83 FILLER_1_123
*84 FILLER_2_0
*85 FILLER_2_7
*86 FILLER_2_14
*87 FILLER_2_21
*88 FILLER_2_28
*89 FILLER_2_35
*90 FILLER_2_42
*91 FILLER_2_49
*92 FILLER_2_56
*93 FILLER_2_63
*94 FILLER_2_70
*95 FILLER_2_77
*96 FILLER_2_84
*97 FILLER_2_91
*98 FILLER_2_98
*99 FILLER_2_105
*100 FILLER_2_112
*101 FILLER_2_119
*102 FILLER_2_123
*103 FILLER_3_0
*104 FILLER_3_7
*105 FILLER_3_14
*106 FILLER_3_21
*107 FILLER_3_28
*108 FILLER_3_35
*109 FILLER_3_42
*110 FILLER_3_49
*111 FILLER_3_56
*112 FILLER_3_63
*113 FILLER_3_70
*114 FILLER_3_77
*115 FILLER_3_84
*116 FILLER_3_91
*117 FILLER_3_98
*118 FILLER_3_105
*119 FILLER_3_112
*120 FILLER_3_119
*121 FILLER_3_123
*122 FILLER_4_0
*123 FILLER_4_7
*124 FILLER_4_14
*125 FILLER_4_21
*126 FILLER_4_28
*127 FILLER_4_35
*128 FILLER_4_42
*129 FILLER_4_49
*130 FILLER_4_56
*131 FILLER_4_63
*132 FILLER_4_70
*133 FILLER_4_77
*134 FILLER_4_84
*135 FILLER_4_91
*136 FILLER_4_98
*137 FILLER_4_105
*138 FILLER_4_112
*139 FILLER_4_119
*140 FILLER_4_123
*141 FILLER_5_0
*142 FILLER_5_7
*143 FILLER_5_14
*144 FILLER_5_21
*145 FILLER_5_28
*146 FILLER_5_35
*147 FILLER_5_42
*148 FILLER_5_49
*149 FILLER_5_53
*150 FILLER_5_59
*151 FILLER_5_66
*152 FILLER_5_73
*153 FILLER_5_80
*154 FILLER_5_87
*155 FILLER_5_94
*156 FILLER_5_101
*157 FILLER_5_108
*158 FILLER_5_115
*159 FILLER_5_122
*160 FILLER_6_0
*161 FILLER_6_7
*162 FILLER_6_14
*163 FILLER_6_21
*164 FILLER_6_28
*165 FILLER_6_35
*166 FILLER_6_42
*167 FILLER_6_92
*168 FILLER_6_99
*169 FILLER_6_106
*170 FILLER_6_113
*171 FILLER_6_120
*172 FILLER_7_0
*173 FILLER_7_7
*174 FILLER_7_14
*175 FILLER_7_21
*176 FILLER_7_31
*177 FILLER_7_33
*178 FILLER_7_89
*179 FILLER_7_101
*180 FILLER_7_108
*181 FILLER_7_113
*182 FILLER_8_0
*183 FILLER_8_7
*184 FILLER_8_14
*185 FILLER_8_21
*186 FILLER_8_28
*187 FILLER_8_30
*188 FILLER_8_73
*189 FILLER_8_80
*190 FILLER_8_87
*191 FILLER_8_94
*192 FILLER_8_101
*193 FILLER_8_108
*194 FILLER_8_115
*195 FILLER_8_122
*196 FILLER_9_0
*197 FILLER_9_7
*198 FILLER_9_14
*199 FILLER_9_21
*200 FILLER_9_25
*201 FILLER_9_30
*202 FILLER_9_37
*203 FILLER_9_44
*204 FILLER_9_51
*205 FILLER_9_59
*206 FILLER_9_66
*207 FILLER_9_73
*208 FILLER_9_80
*209 FILLER_9_87
*210 FILLER_9_94
*211 FILLER_9_101
*212 FILLER_9_108
*213 FILLER_9_115
*214 FILLER_9_122
*215 FILLER_10_0
*216 FILLER_10_7
*217 FILLER_10_14
*218 FILLER_10_21
*219 FILLER_10_28
*220 FILLER_10_35
*221 FILLER_10_42
*222 FILLER_10_49
*223 FILLER_10_56
*224 FILLER_10_63
*225 FILLER_10_70
*226 FILLER_10_77
*227 FILLER_10_84
*228 FILLER_10_91
*229 FILLER_10_98
*230 FILLER_10_105
*231 FILLER_10_112
*232 FILLER_10_119
*233 FILLER_10_123
*234 FILLER_11_0
*235 FILLER_11_7
*236 FILLER_11_14
*237 FILLER_11_21
*238 FILLER_11_28
*239 FILLER_11_35
*240 FILLER_11_42
*241 FILLER_11_49
*242 FILLER_11_56
*243 FILLER_11_63
*244 FILLER_11_70
*245 FILLER_11_77
*246 FILLER_11_84
*247 FILLER_11_91
*248 FILLER_11_98
*249 FILLER_11_105
*250 FILLER_11_112
*251 FILLER_11_119
*252 FILLER_11_123
*253 FILLER_12_0
*254 FILLER_12_7
*255 FILLER_12_14
*256 FILLER_12_21
*257 FILLER_12_28
*258 FILLER_12_35
*259 FILLER_12_42
*260 FILLER_12_49
*261 FILLER_12_56
*262 FILLER_12_63
*263 FILLER_12_70
*264 FILLER_12_77
*265 FILLER_12_84
*266 FILLER_12_91
*267 FILLER_12_98
*268 FILLER_12_105
*269 FILLER_12_112
*270 FILLER_12_119
*271 FILLER_12_123
*272 FILLER_13_0
*273 FILLER_13_7
*274 FILLER_13_14
*275 FILLER_13_21
*276 FILLER_13_28
*277 FILLER_13_35
*278 FILLER_13_42
*279 FILLER_13_49
*280 FILLER_13_56
*281 FILLER_13_63
*282 FILLER_13_70
*283 FILLER_13_77
*284 FILLER_13_84
*285 FILLER_13_91
*286 FILLER_13_98
*287 FILLER_13_105
*288 FILLER_13_112
*289 FILLER_13_119
*290 FILLER_13_123
*291 FILLER_14_0
*292 FILLER_14_7
*293 FILLER_14_14
*294 FILLER_14_21
*295 FILLER_14_28
*296 FILLER_14_35
*297 FILLER_14_42
*298 FILLER_14_49
*299 FILLER_14_56
*300 FILLER_14_63
*301 FILLER_14_70
*302 FILLER_14_77
*303 FILLER_14_84
*304 FILLER_14_91
*305 FILLER_14_98
*306 FILLER_14_105
*307 FILLER_14_112
*308 FILLER_14_119
*309 FILLER_14_123

*PORTS
clock_i I
counter_value_o[0] O
counter_value_o[1] O
counter_value_o[2] O
counter_value_o[3] O
enable_i I
reset_n_i I

*D_NET *1 0.00262009
*CONN
*I *31:B I *D sg13g2_xnor2_1
*I *30:Y O *D sg13g2_nand2_1
*CAP
1 *31:B 2.49067e-05
2 *30:Y 0.000465061
3 *1:8 0.000489967
4 *31:B *32:B 0
5 *31:B *32:C 4.79124e-05
6 *1:8 *30:B 0.000275816
7 *1:8 *32:B 0
8 *1:8 *7:13 0.000275875
9 *1:8 *21:27 0.000178344
10 *1:8 *25:31 0.000862207
*RES
1 *30:Y *1:8 44.8928 
2 *1:8 *31:B 40.2728 
*END

*D_NET *2 0.00136087
*CONN
*I *33:B I *D sg13g2_xnor2_1
*I *32:Y O *D sg13g2_nand3_1
*CAP
1 *33:B 0.00013832
2 *32:Y 0.000542115
3 *2:10 0.000680436
4 *33:B *34:RESET_B 0
5 *33:B *37:D 0
6 *33:B *22:6 0
7 *2:10 *34:RESET_B 0
8 *2:10 *11:8 0
9 *2:10 *23:10 0
10 *2:10 *25:31 0
11 *2:10 *27:21 0
*RES
1 *32:Y *2:10 44.8488 
2 *2:10 *33:B 41.3552 
*END

*D_NET *7 0.00494613
*CONN
*P clock_i I
*I *43:A I *D sg13g2_buf_1
*CAP
1 clock_i 0.00198235
2 *43:A 0
3 *7:13 0.00198235
4 *7:13 counter_value_o[1] 0
5 *7:13 *32:B 0.000210432
6 *7:13 *32:C 0
7 *7:13 *34:CLK 0
8 *7:13 *34:D 0.000102007
9 *7:13 *39:A 0.000393113
10 *7:13 *40:A 0
11 *7:13 *21:31 0
12 *7:13 *21:39 0
13 *7:13 *25:10 0
14 *1:8 *7:13 0.000275875
*RES
1 clock_i *7:13 39.5008 
2 *7:13 *43:A 40 
*END

*D_NET *8 0.000158035
*CONN
*I *34:D I *D sg13g2_dfrbp_1
*I *28:Y O *D sg13g2_inv_1
*CAP
1 *34:D 2.8014e-05
2 *28:Y 2.8014e-05
3 *34:D *21:31 0
4 *7:13 *34:D 0.000102007
*RES
1 *28:Y *34:D 40.4048 
*END

*D_NET *9 0.000218988
*CONN
*I *35:D I *D sg13g2_dfrbp_1
*I *29:X O *D sg13g2_xor2_1
*CAP
1 *35:D 5.84907e-05
2 *29:X 5.84907e-05
3 *35:D *21:31 0
4 *35:D *22:10 0.000102007
*RES
1 *29:X *35:D 40.6776 
*END

*D_NET *10 0.000295871
*CONN
*I *36:D I *D sg13g2_dfrbp_1
*I *31:Y O *D sg13g2_xnor2_1
*CAP
1 *36:D 8.36266e-05
2 *31:Y 8.36266e-05
3 *36:D *32:C 0
4 *36:D *23:10 0.000128618
*RES
1 *31:Y *36:D 40.7832 
*END

*D_NET *11 0.000569577
*CONN
*I *37:D I *D sg13g2_dfrbp_1
*I *33:Y O *D sg13g2_xnor2_1
*CAP
1 *37:D 0.000187137
2 *33:Y 9.76512e-05
3 *11:8 0.000284789
4 *37:D *33:A 0
5 *37:D *34:RESET_B 0
6 *33:B *37:D 0
7 *2:10 *11:8 0
*RES
1 *33:Y *11:8 41.012 
2 *11:8 *37:D 41.7776 
*END

*D_NET *12 0.00402327
*CONN
*P counter_value_o[0] O
*I *39:X O *D sg13g2_buf_1
*CAP
1 counter_value_o[0] 0.000818868
2 *39:X 0.000818868
3 counter_value_o[0] counter_value_o[1] 0.00238554
*RES
1 *39:X counter_value_o[0] 30.7096 
*END

*D_NET *13 0.0042434
*CONN
*P counter_value_o[1] O
*I *40:X O *D sg13g2_buf_1
*CAP
1 counter_value_o[1] 0.000851496
2 *40:X 0.000851496
3 counter_value_o[1] *40:A 0.000154873
4 counter_value_o[0] counter_value_o[1] 0.00238554
5 *7:13 counter_value_o[1] 0
*RES
1 *40:X counter_value_o[1] 30.2256 
*END

*D_NET *14 0.00252777
*CONN
*P counter_value_o[2] O
*I *41:X O *D sg13g2_buf_1
*CAP
1 counter_value_o[2] 0.000831463
2 *41:X 0.000831463
3 counter_value_o[2] counter_value_o[3] 0.000314891
4 counter_value_o[2] *38:A 7.53965e-05
5 counter_value_o[2] *42:A 0.000474554
*RES
1 *41:X counter_value_o[2] 27.6296 
*END

*D_NET *15 0.00131696
*CONN
*P counter_value_o[3] O
*I *42:X O *D sg13g2_buf_1
*CAP
1 counter_value_o[3] 0.000501036
2 *42:X 0.000501036
3 counter_value_o[2] counter_value_o[3] 0.000314891
*RES
1 *42:X counter_value_o[3] 24.5848 
*END

*D_NET *17 0.00275467
*CONN
*P reset_n_i I
*I *38:A I *D sg13g2_buf_2
*CAP
1 reset_n_i 0.00106246
2 *38:A 0.00106246
3 *38:A *42:A 0.000554347
4 counter_value_o[2] *38:A 7.53965e-05
*RES
1 reset_n_i *38:A 29.9814 
*END

*D_NET *20 0.00247508
*CONN
*I *35:RESET_B I *D sg13g2_dfrbp_1
*I *36:RESET_B I *D sg13g2_dfrbp_1
*I *34:RESET_B I *D sg13g2_dfrbp_1
*I *37:RESET_B I *D sg13g2_dfrbp_1
*I *38:X O *D sg13g2_buf_2
*CAP
1 *35:RESET_B 0.000224146
2 *36:RESET_B 0.0001485
3 *34:RESET_B 0.000506058
4 *37:RESET_B 0.000722893
5 *38:X 0.000292481
6 *34:RESET_B *21:8 0
7 *34:RESET_B *23:10 0
8 *35:RESET_B *34:CLK 0
9 *35:RESET_B *21:39 0
10 *35:RESET_B *26:10 0
11 *37:RESET_B *33:A 0
12 *37:RESET_B *42:A 0.000580996
13 *37:RESET_B *27:6 0
14 *33:B *34:RESET_B 0
15 *37:D *34:RESET_B 0
16 *2:10 *34:RESET_B 0
*RES
1 *38:X *37:RESET_B 23.74 
2 *37:RESET_B *34:RESET_B 2.3232 
3 *37:RESET_B *36:RESET_B 1.4784 
4 *34:RESET_B *35:RESET_B 41.936 
*END

*D_NET *21 0.0047045
*CONN
*I *30:B I *D sg13g2_nand2_1
*I *29:B I *D sg13g2_xor2_1
*I *28:A I *D sg13g2_inv_1
*I *39:A I *D sg13g2_buf_1
*I *32:B I *D sg13g2_nand3_1
*I *34:Q O *D sg13g2_dfrbp_1
*CAP
1 *30:B 0.000230899
2 *29:B 3.08559e-05
3 *28:A 0
4 *39:A 0.000126197
5 *32:B 0.000436992
6 *34:Q 0.000162908
7 *21:39 0.000283993
8 *21:31 0.000650467
9 *21:27 0.00079147
10 *21:8 0.000698655
11 *29:B *40:A 0
12 *29:B *22:10 0
13 *30:B *30:A 0
14 *30:B *32:A 0
15 *30:B *25:31 0
16 *32:B *32:C 1.54556e-05
17 *32:B *32:A 3.86694e-05
18 *39:A *40:A 0.000180229
19 *21:8 *22:6 0
20 *21:27 *32:A 0
21 *21:31 *22:6 0
22 *21:31 *22:10 0
23 *21:39 *22:10 0
24 *31:B *32:B 0
25 *34:RESET_B *21:8 0
26 *34:D *21:31 0
27 *35:RESET_B *21:39 0
28 *35:D *21:31 0
29 *1:8 *30:B 0.000275816
30 *1:8 *32:B 0
31 *1:8 *21:27 0.000178344
32 *7:13 *32:B 0.000210432
33 *7:13 *39:A 0.000393113
34 *7:13 *21:31 0
35 *7:13 *21:39 0
*RES
1 *34:Q *21:8 41.3552 
2 *21:8 *32:B 43.7906 
3 *21:8 *21:27 1.012 
4 *21:27 *21:31 24.312 
5 *21:31 *21:39 41.6808 
6 *21:39 *39:A 21.8392 
7 *21:39 *28:A 20 
8 *21:31 *29:B 20.2728 
9 *21:27 *30:B 42.1208 
*END

*D_NET *22 0.00446685
*CONN
*I *30:A I *D sg13g2_nand2_1
*I *32:A I *D sg13g2_nand3_1
*I *29:A I *D sg13g2_xor2_1
*I *40:A I *D sg13g2_buf_1
*I *35:Q O *D sg13g2_dfrbp_1
*CAP
1 *30:A 0.000341347
2 *32:A 0.000475033
3 *29:A 0
4 *40:A 0.000378445
5 *35:Q 0.000267002
6 *22:32 0.00081638
7 *22:10 0.000912155
8 *22:6 0.000800711
9 *30:A *25:31 0
10 *30:A *26:10 0
11 *32:A *32:C 0
12 *32:A *34:CLK 0
13 *32:A *26:10 0
14 *22:6 *25:31 0
15 *22:10 *25:31 0
16 *22:10 *26:10 0
17 counter_value_o[1] *40:A 0.000154873
18 *29:B *40:A 0
19 *29:B *22:10 0
20 *30:B *30:A 0
21 *30:B *32:A 0
22 *32:B *32:A 3.86694e-05
23 *33:B *22:6 0
24 *35:D *22:10 0.000102007
25 *39:A *40:A 0.000180229
26 *7:13 *40:A 0
27 *21:8 *22:6 0
28 *21:27 *32:A 0
29 *21:31 *22:6 0
30 *21:31 *22:10 0
31 *21:39 *22:10 0
*RES
1 *35:Q *22:6 22.4112 
2 *22:6 *22:10 5.1656 
3 *22:10 *40:A 23.7928 
4 *22:10 *29:A 20 
5 *22:6 *22:32 20 
6 *22:32 *32:A 44.1228 
7 *22:32 *30:A 42.9832 
*END

*D_NET *23 0.00565343
*CONN
*I *41:A I *D sg13g2_buf_1
*I *31:A I *D sg13g2_xnor2_1
*I *32:C I *D sg13g2_nand3_1
*I *36:Q O *D sg13g2_dfrbp_1
*CAP
1 *41:A 0
2 *31:A 0
3 *32:C 0.000277212
4 *36:Q 0
5 *23:34 0.000660815
6 *23:10 0.000712477
7 *23:4 0.00109608
8 *32:C *25:18 2.16652e-05
9 *23:10 *36:CLK 7.53965e-05
10 *23:10 *25:18 0.00124054
11 *23:10 *27:6 0.0010112
12 *23:34 *42:A 0
13 *23:34 *25:18 0.000104769
14 *23:34 *27:6 0.000261293
15 *31:B *32:C 4.79124e-05
16 *32:B *32:C 1.54556e-05
17 *32:A *32:C 0
18 *34:RESET_B *23:10 0
19 *36:D *32:C 0
20 *36:D *23:10 0.000128618
21 *2:10 *23:10 0
22 *7:13 *32:C 0
*RES
1 *36:Q *23:4 20 
2 *23:4 *23:10 6.7584 
3 *23:10 *32:C 22.6928 
4 *23:10 *31:A 20 
5 *23:4 *23:34 47.0664 
6 *23:34 *41:A 20 
*END

*D_NET *24 0.00384482
*CONN
*I *33:A I *D sg13g2_xnor2_1
*I *42:A I *D sg13g2_buf_1
*I *37:Q O *D sg13g2_dfrbp_1
*CAP
1 *33:A 0.000388733
2 *42:A 0.000616217
3 *37:Q 0.000728726
4 *24:24 0.000501242
5 *42:A *27:6 0
6 counter_value_o[2] *42:A 0.000474554
7 *37:RESET_B *33:A 0
8 *37:RESET_B *42:A 0.000580996
9 *37:D *33:A 0
10 *38:A *42:A 0.000554347
11 *23:34 *42:A 0
*RES
1 *37:Q *42:A 47.4184 
2 *37:Q *24:24 41.1968 
3 *24:24 *33:A 44.1008 
*END

*D_NET *25 0.00662452
*CONN
*I *44:A I *D sg13g2_buf_1
*I *45:A I *D sg13g2_buf_1
*I *43:X O *D sg13g2_buf_1
*CAP
1 *44:A 0
2 *45:A 0
3 *43:X 9.64799e-05
4 *25:31 0.00133972
5 *25:18 0.000761469
6 *25:10 0.00219767
7 *25:31 *26:10 0
8 *25:31 *27:21 0
9 *30:A *25:31 0
10 *30:B *25:31 0
11 *32:C *25:18 2.16652e-05
12 *1:8 *25:31 0.000862207
13 *2:10 *25:31 0
14 *7:13 *25:10 0
15 *22:6 *25:31 0
16 *22:10 *25:31 0
17 *23:10 *25:18 0.00124054
18 *23:34 *25:18 0.000104769
*RES
1 *43:X *25:10 40.836 
2 *25:10 *25:18 47.4624 
3 *25:18 *45:A 40 
4 *25:10 *25:31 32.2672 
5 *25:31 *44:A 20 
*END

*D_NET *26 0.00158533
*CONN
*I *35:CLK I *D sg13g2_dfrbp_1
*I *34:CLK I *D sg13g2_dfrbp_1
*I *44:X O *D sg13g2_buf_1
*CAP
1 *35:CLK 0
2 *34:CLK 0.000248661
3 *44:X 0.000544003
4 *26:10 0.000792664
5 *30:A *26:10 0
6 *32:A *34:CLK 0
7 *32:A *26:10 0
8 *35:RESET_B *34:CLK 0
9 *35:RESET_B *26:10 0
10 *7:13 *34:CLK 0
11 *22:10 *26:10 0
12 *25:31 *26:10 0
*RES
1 *44:X *26:10 44.532 
2 *26:10 *34:CLK 42.0768 
3 *26:10 *35:CLK 40 
*END

*D_NET *27 0.00258773
*CONN
*I *37:CLK I *D sg13g2_dfrbp_1
*I *36:CLK I *D sg13g2_dfrbp_1
*I *45:X O *D sg13g2_buf_1
*CAP
1 *37:CLK 0
2 *36:CLK 5.29142e-05
3 *45:X 0.000361952
4 *27:21 0.000205052
5 *27:6 0.000619919
6 *37:RESET_B *27:6 0
7 *42:A *27:6 0
8 *2:10 *27:21 0
9 *23:10 *36:CLK 7.53965e-05
10 *23:10 *27:6 0.0010112
11 *23:34 *27:6 0.000261293
12 *25:31 *27:21 0
*RES
1 *45:X *27:6 25.0512 
2 *27:6 *36:CLK 20.572 
3 *27:6 *27:21 42.1208 
4 *27:21 *37:CLK 20 
*END
