*SPEF "ieee 1481-1999"
*DESIGN "counter_board"
*DATE "01:01:23 Sunday April 20, 2025"
*VENDOR "The OpenROAD Project"
*PROGRAM "OpenROAD"
*VERSION "v2.0-19705-gbe6d1c688"
*DESIGN_FLOW "NAME_SCOPE LOCAL" "PIN_CAP NONE"
*DIVIDER /
*DELIMITER :
*BUS_DELIMITER []
*T_UNIT 1 NS
*C_UNIT 1 PF
*R_UNIT 1 OHM
*L_UNIT 1 HENRY

*NAME_MAP
*1 clock_i
*2 net3
*3 net4
*4 net5
*5 net6
*6 enable_i
*7 n1_o
*8 reset_n_i
*9 counter_0/_00_
*10 counter_0/_01_
*11 counter_0/_02_
*12 counter_0/_03_
*13 counter_0/_04_
*14 counter_0/_05_
*15 counter_0/_06_
*16 counter_0/_07_
*17 counter_0/_08_
*18 counter_0/_09_
*19 counter_0/_10_
*20 counter_0/_11_
*23 net1
*24 net2
*25 counter_value_o[0]
*26 counter_value_o[1]
*27 counter_value_o[2]
*28 counter_value_o[3]
*29 clknet_0_clock_i
*30 clknet_1_0__leaf_clock_i
*31 clknet_1_1__leaf_clock_i
*32 _0_
*33 counter_0/_12_
*34 counter_0/_13_
*35 counter_0/_14_
*36 counter_0/_15_
*37 counter_0/_16_
*38 counter_0/_17_
*39 counter_0/_18_
*40 counter_0/_19_
*41 counter_0/n20_q\[0\]\$_DFFE_PP0P_
*42 counter_0/n20_q\[1\]\$_DFFE_PP0P_
*43 counter_0/n20_q\[2\]\$_DFFE_PP0P_
*44 counter_0/n20_q\[3\]\$_DFFE_PP0P_
*45 input1
*46 input2
*47 output3
*48 output4
*49 output5
*50 output6
*51 clkbuf_0_clock_i
*52 clkbuf_1_0__f_clock_i
*53 clkbuf_1_1__f_clock_i
*54 FILLER_0_0
*55 FILLER_0_7
*56 FILLER_0_14
*57 FILLER_0_21
*58 FILLER_0_28
*59 FILLER_0_35
*60 FILLER_0_42
*61 FILLER_0_49
*62 FILLER_0_56
*63 FILLER_0_63
*64 FILLER_0_70
*65 FILLER_0_77
*66 FILLER_0_84
*67 FILLER_0_91
*68 FILLER_0_98
*69 FILLER_0_105
*70 FILLER_0_112
*71 FILLER_0_119
*72 FILLER_0_123
*73 FILLER_1_0
*74 FILLER_1_7
*75 FILLER_1_14
*76 FILLER_1_21
*77 FILLER_1_28
*78 FILLER_1_35
*79 FILLER_1_42
*80 FILLER_1_49
*81 FILLER_1_56
*82 FILLER_1_63
*83 FILLER_1_70
*84 FILLER_1_77
*85 FILLER_1_84
*86 FILLER_1_91
*87 FILLER_1_98
*88 FILLER_1_105
*89 FILLER_1_112
*90 FILLER_1_119
*91 FILLER_1_123
*92 FILLER_2_0
*93 FILLER_2_7
*94 FILLER_2_14
*95 FILLER_2_21
*96 FILLER_2_28
*97 FILLER_2_35
*98 FILLER_2_42
*99 FILLER_2_49
*100 FILLER_2_56
*101 FILLER_2_63
*102 FILLER_2_70
*103 FILLER_2_77
*104 FILLER_2_84
*105 FILLER_2_91
*106 FILLER_2_98
*107 FILLER_2_105
*108 FILLER_2_112
*109 FILLER_2_119
*110 FILLER_2_123
*111 FILLER_3_0
*112 FILLER_3_7
*113 FILLER_3_14
*114 FILLER_3_21
*115 FILLER_3_28
*116 FILLER_3_35
*117 FILLER_3_42
*118 FILLER_3_49
*119 FILLER_3_56
*120 FILLER_3_63
*121 FILLER_3_70
*122 FILLER_3_77
*123 FILLER_3_84
*124 FILLER_3_91
*125 FILLER_3_98
*126 FILLER_3_105
*127 FILLER_3_112
*128 FILLER_3_119
*129 FILLER_3_123
*130 FILLER_4_0
*131 FILLER_4_7
*132 FILLER_4_14
*133 FILLER_4_21
*134 FILLER_4_28
*135 FILLER_4_35
*136 FILLER_4_42
*137 FILLER_4_49
*138 FILLER_4_56
*139 FILLER_4_63
*140 FILLER_4_70
*141 FILLER_4_77
*142 FILLER_4_84
*143 FILLER_4_91
*144 FILLER_4_98
*145 FILLER_4_105
*146 FILLER_4_112
*147 FILLER_4_119
*148 FILLER_5_0
*149 FILLER_5_7
*150 FILLER_5_14
*151 FILLER_5_21
*152 FILLER_5_28
*153 FILLER_5_35
*154 FILLER_5_42
*155 FILLER_5_49
*156 FILLER_5_56
*157 FILLER_5_63
*158 FILLER_5_70
*159 FILLER_5_77
*160 FILLER_5_84
*161 FILLER_5_91
*162 FILLER_5_97
*163 FILLER_5_104
*164 FILLER_5_113
*165 FILLER_5_118
*166 FILLER_6_0
*167 FILLER_6_7
*168 FILLER_6_14
*169 FILLER_6_21
*170 FILLER_6_28
*171 FILLER_6_35
*172 FILLER_6_42
*173 FILLER_6_49
*174 FILLER_6_56
*175 FILLER_6_63
*176 FILLER_6_70
*177 FILLER_6_85
*178 FILLER_7_0
*179 FILLER_7_7
*180 FILLER_7_14
*181 FILLER_7_21
*182 FILLER_7_25
*183 FILLER_7_30
*184 FILLER_7_34
*185 FILLER_7_39
*186 FILLER_7_46
*187 FILLER_7_53
*188 FILLER_7_58
*189 FILLER_7_62
*190 FILLER_7_67
*191 FILLER_7_71
*192 FILLER_8_0
*193 FILLER_8_7
*194 FILLER_8_14
*195 FILLER_8_21
*196 FILLER_8_28
*197 FILLER_8_35
*198 FILLER_8_42
*199 FILLER_8_49
*200 FILLER_8_56
*201 FILLER_8_63
*202 FILLER_8_70
*203 FILLER_8_77
*204 FILLER_8_81
*205 FILLER_9_0
*206 FILLER_9_7
*207 FILLER_9_14
*208 FILLER_9_21
*209 FILLER_9_28
*210 FILLER_9_35
*211 FILLER_9_42
*212 FILLER_9_49
*213 FILLER_9_56
*214 FILLER_9_63
*215 FILLER_9_70
*216 FILLER_9_77
*217 FILLER_9_84
*218 FILLER_9_91
*219 FILLER_9_98
*220 FILLER_9_105
*221 FILLER_9_112
*222 FILLER_9_119
*223 FILLER_10_0
*224 FILLER_10_7
*225 FILLER_10_14
*226 FILLER_10_21
*227 FILLER_10_28
*228 FILLER_10_35
*229 FILLER_10_42
*230 FILLER_10_49
*231 FILLER_10_56
*232 FILLER_10_63
*233 FILLER_10_70
*234 FILLER_10_77
*235 FILLER_10_84
*236 FILLER_10_91
*237 FILLER_10_98
*238 FILLER_10_105
*239 FILLER_10_112
*240 FILLER_10_119
*241 FILLER_10_123
*242 FILLER_11_0
*243 FILLER_11_7
*244 FILLER_11_14
*245 FILLER_11_21
*246 FILLER_11_28
*247 FILLER_11_35
*248 FILLER_11_42
*249 FILLER_11_49
*250 FILLER_11_56
*251 FILLER_11_63
*252 FILLER_11_70
*253 FILLER_11_81
*254 FILLER_11_88
*255 FILLER_11_95
*256 FILLER_11_102
*257 FILLER_11_109
*258 FILLER_11_116
*259 FILLER_11_123
*260 FILLER_12_0
*261 FILLER_12_7
*262 FILLER_12_14
*263 FILLER_12_21
*264 FILLER_12_28
*265 FILLER_12_35
*266 FILLER_12_42
*267 FILLER_12_49
*268 FILLER_12_56
*269 FILLER_12_63
*270 FILLER_12_70
*271 FILLER_12_77
*272 FILLER_12_84
*273 FILLER_12_91
*274 FILLER_12_98
*275 FILLER_12_105
*276 FILLER_12_112
*277 FILLER_12_119
*278 FILLER_12_123
*279 FILLER_13_0
*280 FILLER_13_7
*281 FILLER_13_14
*282 FILLER_13_21
*283 FILLER_13_28
*284 FILLER_13_35
*285 FILLER_13_42
*286 FILLER_13_49
*287 FILLER_13_56
*288 FILLER_13_63
*289 FILLER_13_70
*290 FILLER_13_77
*291 FILLER_13_84
*292 FILLER_13_91
*293 FILLER_13_98
*294 FILLER_13_105
*295 FILLER_13_112
*296 FILLER_13_119
*297 FILLER_13_123
*298 FILLER_14_0
*299 FILLER_14_7
*300 FILLER_14_14
*301 FILLER_14_21
*302 FILLER_14_28
*303 FILLER_14_35
*304 FILLER_14_42
*305 FILLER_14_49
*306 FILLER_14_56
*307 FILLER_14_63
*308 FILLER_14_70
*309 FILLER_14_77
*310 FILLER_14_84
*311 FILLER_14_91
*312 FILLER_14_98
*313 FILLER_14_105
*314 FILLER_14_112
*315 FILLER_14_119
*316 FILLER_14_123

*PORTS
clock_i I
counter_value_o[0] O
counter_value_o[1] O
counter_value_o[2] O
counter_value_o[3] O
enable_i I
reset_n_i I

*D_NET *1 0.00608731
*CONN
*P clock_i I
*I *51:A I *D sg13g2_buf_1
*CAP
1 clock_i 0.00293986
2 *51:A 0.00293986
3 *51:A *34:A 0
4 *51:A *46:A 0
5 *51:A *2:16 0
6 *51:A *23:6 0.000207593
*RES
1 clock_i *51:A 48.5384 
*END

*D_NET *2 0.00442694
*CONN
*I *35:A I *D sg13g2_nand2_1
*I *34:A I *D sg13g2_xor2_1
*I *47:A I *D sg13g2_buf_1
*I *39:B I *D sg13g2_nand4_1
*I *37:B I *D sg13g2_nand3_1
*I *41:Q O *D sg13g2_dfrbp_1
*CAP
1 *35:A 0.000123257
2 *34:A 0.000227755
3 *47:A 0.000388885
4 *39:B 2.99545e-05
5 *37:B 3.36699e-05
6 *41:Q 0.000289591
7 *2:27 0.000609364
8 *2:16 0.000513223
9 *2:10 0.000812449
10 *2:8 0.000708515
11 *34:A *23:16 0
12 *35:A *35:B 0
13 *35:A *29:27 0
14 *37:B *39:D 4.15789e-05
15 *39:B *3:18 0
16 *39:B *3:30 0
17 *39:B *4:31 0
18 *47:A *53:A 0
19 *47:A *3:18 0
20 *47:A *3:30 9.84814e-05
21 *47:A *16:10 0
22 *47:A *31:10 0
23 *2:8 *36:A 0
24 *2:8 *36:B 0
25 *2:8 *42:D 0
26 *2:8 *43:RESET_B 0
27 *2:8 *3:8 0
28 *2:10 *35:B 0
29 *2:10 *53:A 0
30 *2:10 *10:8 0
31 *2:10 *29:27 0
32 *2:16 *37:C 7.53965e-05
33 *2:16 *39:D 0
34 *2:16 *53:A 0
35 *2:16 *3:12 0
36 *2:16 *10:8 0
37 *2:16 *23:16 0.000394723
38 *2:27 *37:A 3.86694e-05
39 *2:27 *39:D 0
40 *2:27 *53:A 0
41 *2:27 *3:18 0
42 *2:27 *4:31 4.14315e-05
43 *51:A *34:A 0
44 *51:A *2:16 0
*RES
1 *41:Q *2:8 42.6224 
2 *2:8 *2:10 2.3056 
3 *2:10 *2:16 22.816 
4 *2:16 *37:B 20.4378 
5 *2:16 *2:27 1.672 
6 *2:27 *39:B 20.3674 
7 *2:27 *47:A 23.3968 
8 *2:10 *34:A 41.8392 
9 *2:8 *35:A 41.1968 
*END

*D_NET *3 0.00498053
*CONN
*I *36:A I *D sg13g2_xnor2_1
*I *37:A I *D sg13g2_nand3_1
*I *48:A I *D sg13g2_buf_1
*I *39:A I *D sg13g2_nand4_1
*I *42:Q O *D sg13g2_dfrbp_1
*CAP
1 *36:A 0.000115221
2 *37:A 7.6464e-06
3 *48:A 0.000355596
4 *39:A 0
5 *42:Q 0.000494953
6 *3:30 0.000177976
7 *3:18 0.000871616
8 *3:12 0.000819609
9 *3:8 0.00108409
10 *36:A *42:CLK 0.000288014
11 *36:A *42:D 0.000128389
12 *37:A *39:D 3.86694e-05
13 *48:A *16:10 0
14 *48:A *25:10 0
15 *48:A *31:10 0
16 *3:8 *42:CLK 0.0001818
17 *3:8 *42:D 2.20968e-05
18 *3:8 *43:RESET_B 0
19 *3:12 *42:RESET_B 0
20 *3:12 *44:RESET_B 0
21 *3:12 *53:A 0
22 *3:12 *12:10 0
23 *3:12 *15:8 0.000177615
24 *3:12 *29:27 0
25 *3:18 *39:D 0
26 *3:18 *4:31 0
27 *3:18 *16:10 0
28 *3:18 *31:10 0
29 *3:30 *40:B 0
30 *3:30 *4:31 0
31 *3:30 *16:10 0
32 *3:30 *31:10 8.00835e-05
33 *39:B *3:18 0
34 *39:B *3:30 0
35 *47:A *3:18 0
36 *47:A *3:30 9.84814e-05
37 *2:8 *36:A 0
38 *2:8 *3:8 0
39 *2:16 *3:12 0
40 *2:27 *37:A 3.86694e-05
41 *2:27 *3:18 0
*RES
1 *42:Q *3:8 45.1568 
2 *3:8 *3:12 4.8224 
3 *3:12 *3:18 23.5288 
4 *3:18 *3:30 42.332 
5 *3:30 *39:A 20 
6 *3:18 *48:A 23.6784 
7 *3:12 *37:A 40.154 
8 *3:8 *36:A 41.6016 
*END

*D_NET *4 0.00336091
*CONN
*I *49:A I *D sg13g2_buf_1
*I *39:C I *D sg13g2_nand4_1
*I *38:A I *D sg13g2_xnor2_1
*I *43:Q O *D sg13g2_dfrbp_1
*CAP
1 *49:A 0.000424956
2 *39:C 0
3 *38:A 0.000139495
4 *43:Q 0
5 *4:31 0.00024346
6 *4:14 0.00110915
7 *4:6 0.00115115
8 *38:A *38:B 0.000128201
9 *38:A *43:RESET_B 0
10 *38:A *44:D 7.51684e-05
11 *38:A *53:A 0
12 *38:A *12:10 0
13 *49:A *5:25 0
14 *4:14 *38:B 0
15 *4:14 *44:D 0
16 *4:14 *5:6 0
17 *4:14 *5:14 0
18 *4:14 *5:25 0
19 *4:14 *25:10 0
20 *4:31 *39:D 4.79124e-05
21 *4:31 *40:B 0
22 *4:31 *15:8 0
23 *4:31 *31:10 0
24 *39:B *4:31 0
25 *2:27 *4:31 4.14315e-05
26 *3:18 *4:31 0
27 *3:30 *4:31 0
*RES
1 *43:Q *4:6 40 
2 *4:6 *4:14 26.6 
3 *4:14 *38:A 21.3552 
4 *4:14 *4:31 42.189 
5 *4:31 *39:C 20 
6 *4:6 *49:A 44.1096 
*END

*D_NET *5 0.00219714
*CONN
*I *50:A I *D sg13g2_buf_1
*I *40:A I *D sg13g2_xnor2_1
*I *44:Q O *D sg13g2_dfrbp_1
*CAP
1 *50:A 0
2 *40:A 0
3 *44:Q 4.77987e-05
4 *5:25 0.000439884
5 *5:14 0.000469209
6 *5:6 0.000956892
7 *5:6 *31:10 0
8 *5:14 *44:D 7.51291e-05
9 *5:14 *53:A 0
10 *5:14 *13:8 0.000208226
11 *5:14 *31:10 0
12 *5:25 *25:10 0
13 *49:A *5:25 0
14 *4:14 *5:6 0
15 *4:14 *5:14 0
16 *4:14 *5:25 0
*RES
1 *44:Q *5:6 20.5104 
2 *5:6 *5:14 43.8192 
3 *5:14 *40:A 20 
4 *5:6 *5:25 43.9688 
5 *5:25 *50:A 20 
*END

*D_NET *6 0.00525185
*CONN
*P enable_i I
*I *45:A I *D sg13g2_buf_1
*CAP
1 enable_i 0.00126088
2 *45:A 0
3 *6:9 0.00126088
4 *6:9 *46:A 0.0027301
*RES
1 enable_i *6:9 34.8632 
2 *6:9 *45:A 40 
*END

*D_NET *7 0.000825956
*CONN
*I *33:A I *D sg13g2_inv_2
*I *32:Y O *D sg13g2_inv_2
*CAP
1 *33:A 0.00016505
2 *32:Y 0.00016505
3 *33:A *32:A 0
4 *33:A *41:RESET_B 4.79124e-05
5 *33:A *23:6 0.000447944
*RES
1 *32:Y *33:A 42.2352 
*END

*D_NET *8 0.00607867
*CONN
*P reset_n_i I
*I *46:A I *D sg13g2_buf_1
*CAP
1 reset_n_i 0.00167429
2 *46:A 0.00167429
3 *46:A *23:6 0
4 *51:A *46:A 0
5 *6:9 *46:A 0.0027301
*RES
1 reset_n_i *46:A 37.028 
*END

*D_NET *9 0.00209069
*CONN
*I *42:RESET_B I *D sg13g2_dfrbp_1
*I *44:RESET_B I *D sg13g2_dfrbp_1
*I *43:RESET_B I *D sg13g2_dfrbp_1
*I *41:RESET_B I *D sg13g2_dfrbp_1
*I *33:Y O *D sg13g2_inv_2
*CAP
1 *42:RESET_B 0.000196286
2 *44:RESET_B 0.000210866
3 *43:RESET_B 0.000312558
4 *41:RESET_B 0.000614235
5 *33:Y 0.000301677
6 *9:28 0.000407151
7 *41:RESET_B *41:D 0
8 *41:RESET_B *23:6 0
9 *42:RESET_B *43:CLK 0
10 *43:RESET_B *38:B 0
11 *43:RESET_B *12:10 0
12 *44:RESET_B *43:CLK 0
13 *44:RESET_B *12:10 0
14 *33:A *41:RESET_B 4.79124e-05
15 *38:A *43:RESET_B 0
16 *2:8 *43:RESET_B 0
17 *3:8 *43:RESET_B 0
18 *3:12 *42:RESET_B 0
19 *3:12 *44:RESET_B 0
*RES
1 *33:Y *41:RESET_B 22.4288 
2 *41:RESET_B *43:RESET_B 2.9568 
3 *43:RESET_B *9:28 20 
4 *9:28 *44:RESET_B 21.5664 
5 *9:28 *42:RESET_B 21.936 
*END

*D_NET *10 0.00129242
*CONN
*I *41:D I *D sg13g2_dfrbp_1
*I *34:X O *D sg13g2_xor2_1
*CAP
1 *41:D 0.000246064
2 *34:X 0.000362563
3 *10:8 0.000608627
4 *41:D *41:CLK 7.51684e-05
5 *41:D *42:CLK 0
6 *41:D *23:6 0
7 *10:8 *35:B 0
8 *10:8 *23:10 0
9 *10:8 *23:16 0
10 *41:RESET_B *41:D 0
11 *2:10 *10:8 0
12 *2:16 *10:8 0
*RES
1 *34:X *10:8 42.4904 
2 *10:8 *41:D 42.2 
*END

*D_NET *11 0.000277825
*CONN
*I *42:D I *D sg13g2_dfrbp_1
*I *36:Y O *D sg13g2_xnor2_1
*CAP
1 *42:D 6.36693e-05
2 *36:Y 6.36693e-05
3 *42:D *36:B 0
4 *42:D *42:CLK 0
5 *36:A *42:D 0.000128389
6 *2:8 *42:D 0
7 *3:8 *42:D 2.20968e-05
*RES
1 *36:Y *42:D 40.7832 
*END

*D_NET *12 0.000460662
*CONN
*I *43:D I *D sg13g2_dfrbp_1
*I *38:Y O *D sg13g2_xnor2_1
*CAP
1 *43:D 0
2 *38:Y 0.000230331
3 *12:10 0.000230331
4 *38:A *12:10 0
5 *43:RESET_B *12:10 0
6 *44:RESET_B *12:10 0
7 *3:12 *12:10 0
*RES
1 *38:Y *12:10 41.9184 
2 *12:10 *43:D 40 
*END

*D_NET *13 0.00140424
*CONN
*I *44:D I *D sg13g2_dfrbp_1
*I *40:Y O *D sg13g2_xnor2_1
*CAP
1 *44:D 0.000302478
2 *40:Y 0.00022038
3 *13:8 0.000522859
4 *44:D *53:A 0
5 *38:A *44:D 7.51684e-05
6 *4:14 *44:D 0
7 *5:14 *44:D 7.51291e-05
8 *5:14 *13:8 0.000208226
*RES
1 *40:Y *13:8 41.936 
2 *13:8 *44:D 42.4112 
*END

*D_NET *14 0.000360698
*CONN
*I *36:B I *D sg13g2_xnor2_1
*I *35:Y O *D sg13g2_nand2_1
*CAP
1 *36:B 0.000180349
2 *35:Y 0.000180349
3 *36:B *42:CLK 0
4 *42:D *36:B 0
5 *2:8 *36:B 0
*RES
1 *35:Y *36:B 41.4168 
*END

*D_NET *15 0.000722661
*CONN
*I *38:B I *D sg13g2_xnor2_1
*I *37:Y O *D sg13g2_nand3_1
*CAP
1 *38:B 0.000106247
2 *37:Y 0.000102176
3 *15:8 0.000208423
4 *38:B *53:A 0
5 *38:A *38:B 0.000128201
6 *43:RESET_B *38:B 0
7 *3:12 *15:8 0.000177615
8 *4:14 *38:B 0
9 *4:31 *15:8 0
*RES
1 *37:Y *15:8 41.012 
2 *15:8 *38:B 40.9944 
*END

*D_NET *16 0.000697989
*CONN
*I *40:B I *D sg13g2_xnor2_1
*I *39:Y O *D sg13g2_nand4_1
*CAP
1 *40:B 2.60492e-05
2 *39:Y 0.000179609
3 *16:10 0.000205658
4 *16:10 *31:10 0.000286673
5 *47:A *16:10 0
6 *48:A *16:10 0
7 *3:18 *16:10 0
8 *3:30 *40:B 0
9 *3:30 *16:10 0
10 *4:31 *40:B 0
*RES
1 *39:Y *16:10 41.8128 
2 *16:10 *40:B 40.2728 
*END

*D_NET *23 0.00641114
*CONN
*I *35:B I *D sg13g2_nand2_1
*I *34:B I *D sg13g2_xor2_1
*I *37:C I *D sg13g2_nand3_1
*I *39:D I *D sg13g2_nand4_1
*I *45:X O *D sg13g2_buf_1
*CAP
1 *35:B 0.000287456
2 *34:B 0
3 *37:C 6.84283e-06
4 *39:D 0.000253831
5 *45:X 0.000991488
6 *23:16 0.000619114
7 *23:10 0.000524687
8 *23:8 0.000453703
9 *23:6 0.000991488
10 *35:B *41:CLK 0
11 *35:B *42:CLK 0.00012839
12 *23:6 *32:A 0.000900323
13 *23:6 *41:CLK 0
14 *33:A *23:6 0.000447944
15 *34:A *23:16 0
16 *35:A *35:B 0
17 *37:B *39:D 4.15789e-05
18 *37:A *39:D 3.86694e-05
19 *41:RESET_B *23:6 0
20 *41:D *23:6 0
21 *46:A *23:6 0
22 *51:A *23:6 0.000207593
23 *2:10 *35:B 0
24 *2:16 *37:C 7.53965e-05
25 *2:16 *39:D 0
26 *2:16 *23:16 0.000394723
27 *2:27 *39:D 0
28 *3:18 *39:D 0
29 *4:31 *39:D 4.79124e-05
30 *10:8 *35:B 0
31 *10:8 *23:10 0
32 *10:8 *23:16 0
*RES
1 *45:X *23:6 30.9648 
2 *23:6 *23:8 20 
3 *23:8 *23:10 1.3816 
4 *23:10 *23:16 23.9776 
5 *23:16 *39:D 22.6576 
6 *23:16 *37:C 20.2992 
7 *23:10 *34:B 40 
8 *23:8 *35:B 42.6312 
*END

*D_NET *24 0.00147964
*CONN
*I *32:A I *D sg13g2_inv_2
*I *46:X O *D sg13g2_buf_1
*CAP
1 *32:A 0.000289659
2 *46:X 0.000289659
3 *33:A *32:A 0
4 *23:6 *32:A 0.000900323
*RES
1 *46:X *32:A 44.0304 
*END

*D_NET *25 0.00318805
*CONN
*P counter_value_o[0] O
*I *47:X O *D sg13g2_buf_1
*CAP
1 counter_value_o[0] 0.000951524
2 *47:X 0.000471748
3 *25:10 0.00142327
4 counter_value_o[0] counter_value_o[1] 0
5 counter_value_o[0] counter_value_o[3] 0
6 *25:10 *26:10 0
7 *25:10 *31:10 0.000341502
8 *48:A *25:10 0
9 *4:14 *25:10 0
10 *5:25 *25:10 0
*RES
1 *47:X *25:10 45.0864 
2 *25:10 counter_value_o[0] 28.492 
*END

*D_NET *26 0.00304572
*CONN
*P counter_value_o[1] O
*I *48:X O *D sg13g2_buf_1
*CAP
1 counter_value_o[1] 0.000649532
2 *48:X 0.000873331
3 *26:10 0.00152286
4 counter_value_o[1] counter_value_o[3] 0
5 counter_value_o[0] counter_value_o[1] 0
6 *25:10 *26:10 0
*RES
1 *48:X *26:10 49.152 
2 *26:10 counter_value_o[1] 24.268 
*END

*D_NET *27 0.00218761
*CONN
*P counter_value_o[2] O
*I *49:X O *D sg13g2_buf_1
*CAP
1 counter_value_o[2] 0.00027578
2 *49:X 0.000818025
3 *27:8 0.0010938
4 counter_value_o[2] counter_value_o[3] 0
5 *27:8 counter_value_o[3] 0
*RES
1 *49:X *27:8 48.4304 
2 *27:8 counter_value_o[2] 22.772 
*END

*D_NET *28 0.00216518
*CONN
*P counter_value_o[3] O
*I *50:X O *D sg13g2_buf_1
*CAP
1 counter_value_o[3] 0.00108259
2 *50:X 0.00108259
3 counter_value_o[0] counter_value_o[3] 0
4 counter_value_o[1] counter_value_o[3] 0
5 counter_value_o[2] counter_value_o[3] 0
6 *27:8 counter_value_o[3] 0
*RES
1 *50:X counter_value_o[3] 29.9088 
*END

*D_NET *29 0.00444276
*CONN
*I *52:A I *D sg13g2_buf_1
*I *53:A I *D sg13g2_buf_1
*I *51:X O *D sg13g2_buf_1
*CAP
1 *52:A 0
2 *53:A 0.00120058
3 *51:X 2.09589e-05
4 *29:27 0.000999841
5 *29:8 0.00222138
6 *53:A *31:10 0
7 *29:27 *30:10 0
8 *35:A *29:27 0
9 *38:A *53:A 0
10 *38:B *53:A 0
11 *44:D *53:A 0
12 *47:A *53:A 0
13 *2:10 *53:A 0
14 *2:10 *29:27 0
15 *2:16 *53:A 0
16 *2:27 *53:A 0
17 *3:12 *53:A 0
18 *3:12 *29:27 0
19 *5:14 *53:A 0
*RES
1 *51:X *29:8 40.1936 
2 *29:8 *53:A 49.24 
3 *29:8 *29:27 30.2608 
4 *29:27 *52:A 20 
*END

*D_NET *30 0.00306538
*CONN
*I *42:CLK I *D sg13g2_dfrbp_1
*I *41:CLK I *D sg13g2_dfrbp_1
*I *52:X O *D sg13g2_buf_1
*CAP
1 *42:CLK 0.000490204
2 *41:CLK 0.000210121
3 *52:X 0.000495681
4 *30:10 0.00119601
5 *35:B *41:CLK 0
6 *35:B *42:CLK 0.00012839
7 *36:A *42:CLK 0.000288014
8 *36:B *42:CLK 0
9 *41:D *41:CLK 7.51684e-05
10 *41:D *42:CLK 0
11 *42:D *42:CLK 0
12 *3:8 *42:CLK 0.0001818
13 *23:6 *41:CLK 0
14 *29:27 *30:10 0
*RES
1 *52:X *30:10 45.1392 
2 *30:10 *41:CLK 42.0504 
3 *30:10 *42:CLK 45.3416 
*END

*D_NET *31 0.00239323
*CONN
*I *43:CLK I *D sg13g2_dfrbp_1
*I *44:CLK I *D sg13g2_dfrbp_1
*I *53:X O *D sg13g2_buf_1
*CAP
1 *43:CLK 0.000225526
2 *44:CLK 0
3 *53:X 0.000616959
4 *31:10 0.000842485
5 *42:RESET_B *43:CLK 0
6 *44:RESET_B *43:CLK 0
7 *47:A *31:10 0
8 *48:A *31:10 0
9 *53:A *31:10 0
10 *3:18 *31:10 0
11 *3:30 *31:10 8.00835e-05
12 *4:31 *31:10 0
13 *5:6 *31:10 0
14 *5:14 *31:10 0
15 *16:10 *31:10 0.000286673
16 *25:10 *31:10 0.000341502
*RES
1 *53:X *31:10 46.3536 
2 *31:10 *44:CLK 40 
3 *31:10 *43:CLK 41.936 
*END
