*SPEF "ieee 1481-1999"
*DESIGN "counter_board"
*DATE "21:41:23 Tuesday March 04, 2025"
*VENDOR "The OpenROAD Project"
*PROGRAM "OpenROAD"
*VERSION "v2.0-19249-geafd19f93"
*DESIGN_FLOW "NAME_SCOPE LOCAL" "PIN_CAP NONE"
*DIVIDER /
*DELIMITER :
*BUS_DELIMITER []
*T_UNIT 1 NS
*C_UNIT 1 PF
*R_UNIT 1 OHM
*L_UNIT 1 HENRY

*NAME_MAP
*1 _00_
*2 _01_
*3 _02_
*4 _03_
*5 _04_
*6 _05_
*7 _06_
*8 _07_
*9 _08_
*10 _09_
*11 _10_
*12 clock_i
*13 net3
*14 net4
*15 net5
*16 net6
*17 enable_i
*18 reset_n_i
*21 net1
*22 net2
*23 counter_value_o[0]
*24 counter_value_o[1]
*25 counter_value_o[2]
*26 counter_value_o[3]
*27 clknet_0_clock_i
*28 clknet_1_0__leaf_clock_i
*29 clknet_1_1__leaf_clock_i
*30 _11_
*31 _12_
*32 _13_
*33 _14_
*34 _15_
*35 _16_
*36 _17_
*37 counter_0\.n20_q\[0\]\$_DFFE_PN0P_
*38 counter_0\.n20_q\[1\]\$_DFFE_PN0P_
*39 counter_0\.n20_q\[2\]\$_DFFE_PN0P_
*40 counter_0\.n20_q\[3\]\$_DFFE_PN0P_
*41 input1
*42 input2
*43 output3
*44 output4
*45 output5
*46 output6
*47 clkbuf_0_clock_i
*48 clkbuf_1_0__f_clock_i
*49 clkbuf_1_1__f_clock_i
*50 FILLER_0_0
*51 FILLER_0_7
*52 FILLER_0_14
*53 FILLER_0_21
*54 FILLER_0_28
*55 FILLER_0_35
*56 FILLER_0_42
*57 FILLER_0_49
*58 FILLER_0_56
*59 FILLER_0_63
*60 FILLER_0_70
*61 FILLER_0_77
*62 FILLER_0_84
*63 FILLER_0_91
*64 FILLER_0_98
*65 FILLER_0_105
*66 FILLER_0_112
*67 FILLER_0_119
*68 FILLER_0_123
*69 FILLER_1_0
*70 FILLER_1_7
*71 FILLER_1_14
*72 FILLER_1_21
*73 FILLER_1_28
*74 FILLER_1_35
*75 FILLER_1_42
*76 FILLER_1_49
*77 FILLER_1_56
*78 FILLER_1_63
*79 FILLER_1_70
*80 FILLER_1_77
*81 FILLER_1_84
*82 FILLER_1_91
*83 FILLER_1_98
*84 FILLER_1_105
*85 FILLER_1_112
*86 FILLER_1_119
*87 FILLER_1_123
*88 FILLER_2_0
*89 FILLER_2_7
*90 FILLER_2_14
*91 FILLER_2_21
*92 FILLER_2_28
*93 FILLER_2_35
*94 FILLER_2_42
*95 FILLER_2_49
*96 FILLER_2_56
*97 FILLER_2_63
*98 FILLER_2_70
*99 FILLER_2_77
*100 FILLER_2_84
*101 FILLER_2_91
*102 FILLER_2_98
*103 FILLER_2_105
*104 FILLER_2_112
*105 FILLER_2_119
*106 FILLER_2_123
*107 FILLER_3_0
*108 FILLER_3_7
*109 FILLER_3_14
*110 FILLER_3_21
*111 FILLER_3_28
*112 FILLER_3_35
*113 FILLER_3_42
*114 FILLER_3_49
*115 FILLER_3_56
*116 FILLER_3_63
*117 FILLER_3_70
*118 FILLER_3_77
*119 FILLER_3_84
*120 FILLER_3_91
*121 FILLER_3_98
*122 FILLER_3_105
*123 FILLER_3_112
*124 FILLER_3_119
*125 FILLER_3_123
*126 FILLER_4_4
*127 FILLER_4_11
*128 FILLER_4_18
*129 FILLER_4_25
*130 FILLER_4_32
*131 FILLER_4_40
*132 FILLER_4_47
*133 FILLER_4_54
*134 FILLER_4_61
*135 FILLER_4_68
*136 FILLER_4_75
*137 FILLER_4_82
*138 FILLER_4_89
*139 FILLER_4_96
*140 FILLER_4_103
*141 FILLER_4_110
*142 FILLER_4_117
*143 FILLER_5_0
*144 FILLER_5_27
*145 FILLER_5_34
*146 FILLER_5_41
*147 FILLER_5_48
*148 FILLER_5_55
*149 FILLER_5_62
*150 FILLER_5_69
*151 FILLER_5_76
*152 FILLER_5_83
*153 FILLER_5_90
*154 FILLER_5_97
*155 FILLER_5_104
*156 FILLER_5_111
*157 FILLER_5_118
*158 FILLER_5_122
*159 FILLER_6_0
*160 FILLER_6_47
*161 FILLER_6_54
*162 FILLER_6_61
*163 FILLER_6_68
*164 FILLER_6_75
*165 FILLER_6_82
*166 FILLER_6_90
*167 FILLER_6_97
*168 FILLER_6_104
*169 FILLER_6_111
*170 FILLER_6_118
*171 FILLER_6_122
*172 FILLER_7_8
*173 FILLER_7_21
*174 FILLER_7_48
*175 FILLER_7_55
*176 FILLER_7_62
*177 FILLER_7_69
*178 FILLER_7_76
*179 FILLER_7_83
*180 FILLER_7_93
*181 FILLER_7_100
*182 FILLER_7_107
*183 FILLER_7_114
*184 FILLER_7_121
*185 FILLER_7_123
*186 FILLER_8_0
*187 FILLER_8_27
*188 FILLER_8_34
*189 FILLER_8_41
*190 FILLER_8_48
*191 FILLER_8_55
*192 FILLER_8_62
*193 FILLER_8_69
*194 FILLER_8_76
*195 FILLER_8_83
*196 FILLER_8_90
*197 FILLER_8_97
*198 FILLER_8_104
*199 FILLER_8_111
*200 FILLER_8_118
*201 FILLER_8_122
*202 FILLER_9_4
*203 FILLER_9_6
*204 FILLER_9_19
*205 FILLER_9_26
*206 FILLER_9_33
*207 FILLER_9_40
*208 FILLER_9_47
*209 FILLER_9_54
*210 FILLER_9_61
*211 FILLER_9_68
*212 FILLER_9_75
*213 FILLER_9_82
*214 FILLER_9_89
*215 FILLER_9_96
*216 FILLER_9_103
*217 FILLER_9_110
*218 FILLER_9_117
*219 FILLER_10_4
*220 FILLER_10_11
*221 FILLER_10_18
*222 FILLER_10_25
*223 FILLER_10_32
*224 FILLER_10_39
*225 FILLER_10_46
*226 FILLER_10_53
*227 FILLER_10_60
*228 FILLER_10_67
*229 FILLER_10_74
*230 FILLER_10_81
*231 FILLER_10_88
*232 FILLER_10_95
*233 FILLER_10_102
*234 FILLER_10_109
*235 FILLER_10_116
*236 FILLER_10_123
*237 FILLER_11_0
*238 FILLER_11_7
*239 FILLER_11_14
*240 FILLER_11_21
*241 FILLER_11_28
*242 FILLER_11_35
*243 FILLER_11_42
*244 FILLER_11_49
*245 FILLER_11_56
*246 FILLER_11_63
*247 FILLER_11_70
*248 FILLER_11_77
*249 FILLER_11_84
*250 FILLER_11_91
*251 FILLER_11_98
*252 FILLER_11_105
*253 FILLER_11_112
*254 FILLER_11_119
*255 FILLER_11_123
*256 FILLER_12_0
*257 FILLER_12_7
*258 FILLER_12_14
*259 FILLER_12_20
*260 FILLER_12_27
*261 FILLER_12_34
*262 FILLER_12_41
*263 FILLER_12_48
*264 FILLER_12_55
*265 FILLER_12_62
*266 FILLER_12_69
*267 FILLER_12_76
*268 FILLER_12_83
*269 FILLER_12_90
*270 FILLER_12_97
*271 FILLER_12_104
*272 FILLER_12_111
*273 FILLER_12_118
*274 FILLER_12_122
*275 FILLER_13_0
*276 FILLER_13_7
*277 FILLER_13_14
*278 FILLER_13_21
*279 FILLER_13_28
*280 FILLER_13_35
*281 FILLER_13_42
*282 FILLER_13_49
*283 FILLER_13_56
*284 FILLER_13_63
*285 FILLER_13_70
*286 FILLER_13_77
*287 FILLER_13_84
*288 FILLER_13_91
*289 FILLER_13_98
*290 FILLER_13_105
*291 FILLER_13_112
*292 FILLER_13_119
*293 FILLER_13_123
*294 FILLER_14_0
*295 FILLER_14_7
*296 FILLER_14_14
*297 FILLER_14_21
*298 FILLER_14_28
*299 FILLER_14_35
*300 FILLER_14_42
*301 FILLER_14_49
*302 FILLER_14_56
*303 FILLER_14_63
*304 FILLER_14_70
*305 FILLER_14_77
*306 FILLER_14_84
*307 FILLER_14_91
*308 FILLER_14_98
*309 FILLER_14_105
*310 FILLER_14_112
*311 FILLER_14_119
*312 FILLER_14_123

*PORTS
clock_i I
counter_value_o[0] O
counter_value_o[1] O
counter_value_o[2] O
counter_value_o[3] O
enable_i I
reset_n_i I

*D_NET *1 0.00280818
*CONN
*I *37:D I *D sg13g2_dfrbp_1
*I *30:X O *D sg13g2_xor2_1
*CAP
1 *37:D 0
2 *30:X 0.00102293
3 *1:10 0.00102293
4 *1:10 *30:A 0
5 *1:10 *33:B 0.000178225
6 *1:10 *43:A 4.78023e-05
7 *1:10 *44:A 0
8 *1:10 *5:10 0
9 *1:10 *14:10 0
10 *1:10 *14:14 0
11 *1:10 *21:10 0
12 *1:10 *23:10 0.000536289
*RES
1 *30:X *1:10 49.3368 
2 *1:10 *37:D 40 
*END

*D_NET *2 0.00119622
*CONN
*I *38:D I *D sg13g2_dfrbp_1
*I *32:Y O *D sg13g2_xnor2_1
*CAP
1 *38:D 7.98173e-05
2 *32:Y 0.000189773
3 *2:8 0.000269591
4 *38:D *14:8 7.51291e-05
5 *2:8 *44:A 4.77421e-05
6 *2:8 *5:10 0.000210686
7 *2:8 *14:10 0.000210746
8 *2:8 *14:14 0.000112739
9 *2:8 *27:29 0
*RES
1 *32:Y *2:8 41.936 
2 *2:8 *38:D 40.7216 
*END

*D_NET *3 0.000685307
*CONN
*I *39:D I *D sg13g2_dfrbp_1
*I *34:Y O *D sg13g2_xnor2_1
*CAP
1 *39:D 0.000305089
2 *34:Y 0.000305089
3 *39:D *33:C 0
4 *39:D *34:A 0
5 *39:D *35:C 0
6 *39:D *35:A 0
7 *39:D *40:D 0
8 *39:D *7:10 7.51291e-05
9 *39:D *15:8 0
10 *39:D *27:14 0
*RES
1 *34:Y *39:D 42.904 
*END

*D_NET *4 0.00029281
*CONN
*I *40:D I *D sg13g2_dfrbp_1
*I *36:Y O *D sg13g2_xnor2_1
*CAP
1 *40:D 0.000146405
2 *36:Y 0.000146405
3 *40:D *36:B 0
4 *40:D *40:CLK 0
5 *40:D *47:A 0
6 *39:D *40:D 0
*RES
1 *36:Y *40:D 41.2056 
*END

*D_NET *5 0.00164739
*CONN
*I *32:B I *D sg13g2_xnor2_1
*I *31:Y O *D sg13g2_nand2_1
*CAP
1 *32:B 0.000118776
2 *31:Y 0.000599576
3 *5:10 0.000718352
4 *32:B *47:A 0
5 *5:10 *30:A 0
6 *5:10 *38:CLK 0
7 *5:10 *44:A 0
8 *5:10 *27:29 0
9 *1:10 *5:10 0
10 *2:8 *5:10 0.000210686
*RES
1 *31:Y *5:10 45.0864 
2 *5:10 *32:B 40.9944 
*END

*D_NET *6 0.00037089
*CONN
*I *34:B I *D sg13g2_xnor2_1
*I *33:Y O *D sg13g2_nand3_1
*CAP
1 *34:B 0.000151061
2 *33:Y 0.000151061
3 *34:B *33:B 0
4 *34:B *33:C 0
5 *34:B *33:A 2.21754e-05
6 *34:B *34:A 4.65934e-05
7 *34:B *13:10 0
*RES
1 *33:Y *34:B 41.4784 
*END

*D_NET *7 0.000815633
*CONN
*I *36:B I *D sg13g2_xnor2_1
*I *35:Y O *D sg13g2_nand4_1
*CAP
1 *36:B 9.18343e-05
2 *35:Y 0.000165474
3 *7:10 0.000257308
4 *36:B *36:A 1.54556e-05
5 *36:B *47:A 0
6 *7:10 *13:55 0.000210432
7 *7:10 *15:8 0
8 *7:10 *21:23 0
9 *39:D *7:10 7.51291e-05
10 *40:D *36:B 0
*RES
1 *35:Y *7:10 41.496 
2 *7:10 *36:B 40.7832 
*END

*D_NET *12 0.00335018
*CONN
*P clock_i I
*I *47:A I *D sg13g2_buf_1
*CAP
1 clock_i 0.00116042
2 *47:A 0.00116042
3 *47:A counter_value_o[0] 0.00102934
4 *47:A *33:C 0
5 *47:A *14:8 0
6 *32:B *47:A 0
7 *36:B *47:A 0
8 *40:D *47:A 0
*RES
1 clock_i *47:A 31.4488 
*END

*D_NET *13 0.0057516
*CONN
*I *31:A I *D sg13g2_nand2_1
*I *30:A I *D sg13g2_xor2_1
*I *35:B I *D sg13g2_nand4_1
*I *33:B I *D sg13g2_nand3_1
*I *43:A I *D sg13g2_buf_1
*I *37:Q O *D sg13g2_dfrbp_1
*CAP
1 *31:A 0
2 *30:A 0.000306163
3 *35:B 8.61917e-05
4 *33:B 0.000203891
5 *43:A 0.000226124
6 *37:Q 0.000203212
7 *13:55 0.000892038
8 *13:36 0.00078286
9 *13:10 0.000894435
10 *13:6 0.000778425
11 *30:A *21:19 0.000287676
12 *33:B *33:C 0
13 *35:B *35:C 0
14 *35:B *35:A 2.01314e-05
15 *35:B *15:8 5.02702e-05
16 *43:A *23:10 0
17 *13:6 *37:CLK 0
18 *13:6 *15:8 0
19 *13:10 *33:C 0
20 *13:10 *33:A 0
21 *13:10 *34:A 0
22 *13:10 *37:CLK 0
23 *13:10 *15:8 0
24 *13:36 *37:RESET_B 0
25 *13:36 *27:14 0
26 *13:55 *35:D 0
27 *13:55 *37:RESET_B 0
28 *13:55 *38:RESET_B 0
29 *13:55 *39:RESET_B 0
30 *13:55 *40:CLK 0.000242774
31 *13:55 *21:23 0
32 *13:55 *29:10 0.000340944
33 *34:B *33:B 0
34 *34:B *13:10 0
35 *1:10 *30:A 0
36 *1:10 *33:B 0.000178225
37 *1:10 *43:A 4.78023e-05
38 *5:10 *30:A 0
39 *7:10 *13:55 0.000210432
*RES
1 *37:Q *13:6 21.5664 
2 *13:6 *13:10 23.8896 
3 *13:10 *43:A 42.1208 
4 *13:10 *33:B 42.0834 
5 *13:6 *13:36 21.012 
6 *13:36 *35:B 40.66 
7 *13:36 *13:55 25.5616 
8 *13:55 *30:A 22.7456 
9 *13:55 *31:A 20 
*END

*D_NET *14 0.00416832
*CONN
*I *44:A I *D sg13g2_buf_1
*I *32:A I *D sg13g2_xnor2_1
*I *33:A I *D sg13g2_nand3_1
*I *35:A I *D sg13g2_nand4_1
*I *38:Q O *D sg13g2_dfrbp_1
*CAP
1 *44:A 0.000380543
2 *32:A 0
3 *33:A 1.67807e-05
4 *35:A 4.0558e-05
5 *38:Q 0.000592363
6 *14:20 0.00032891
7 *14:14 0.000542443
8 *14:10 0.000367123
9 *14:8 0.00110272
10 *33:A *33:C 0
11 *35:A *15:8 0
12 *44:A counter_value_o[1] 0
13 *44:A *41:A 0
14 *14:8 *36:A 0
15 *14:8 *38:CLK 0
16 *14:8 *38:RESET_B 0
17 *14:14 *23:10 0.000308217
18 *34:B *33:A 2.21754e-05
19 *35:B *35:A 2.01314e-05
20 *38:D *14:8 7.51291e-05
21 *39:D *35:A 0
22 *47:A *14:8 0
23 *1:10 *44:A 0
24 *1:10 *14:10 0
25 *1:10 *14:14 0
26 *2:8 *44:A 4.77421e-05
27 *2:8 *14:10 0.000210746
28 *2:8 *14:14 0.000112739
29 *5:10 *44:A 0
30 *13:10 *33:A 0
*RES
1 *38:Q *14:8 44.7344 
2 *14:8 *14:10 1.1968 
3 *14:10 *14:14 2.4464 
4 *14:14 *14:20 43.0448 
5 *14:20 *35:A 40.3234 
6 *14:14 *33:A 40.154 
7 *14:10 *32:A 40 
8 *14:8 *44:A 42.8424 
*END

*D_NET *15 0.0035853
*CONN
*I *45:A I *D sg13g2_buf_1
*I *35:C I *D sg13g2_nand4_1
*I *34:A I *D sg13g2_xnor2_1
*I *39:Q O *D sg13g2_dfrbp_1
*CAP
1 *45:A 0.00083179
2 *35:C 5.09813e-05
3 *34:A 0.000173934
4 *39:Q 0.0015193
5 *15:8 0.000912429
6 *34:A *33:C 0
7 *45:A *40:RESET_B 0
8 *45:A *46:A 0
9 *15:8 *37:CLK 0
10 *15:8 *39:CLK 0
11 *34:B *34:A 4.65934e-05
12 *35:B *35:C 0
13 *35:B *15:8 5.02702e-05
14 *35:A *15:8 0
15 *39:D *34:A 0
16 *39:D *35:C 0
17 *39:D *15:8 0
18 *7:10 *15:8 0
19 *13:6 *15:8 0
20 *13:10 *34:A 0
21 *13:10 *15:8 0
*RES
1 *39:Q *15:8 26.4856 
2 *15:8 *34:A 21.628 
3 *15:8 *35:C 20.5302 
4 *39:Q *45:A 49.02 
*END

*D_NET *16 0.0053076
*CONN
*I *36:A I *D sg13g2_xnor2_1
*I *46:A I *D sg13g2_buf_1
*I *40:Q O *D sg13g2_dfrbp_1
*CAP
1 *36:A 0.000644515
2 *46:A 0.000689472
3 *40:Q 0.00133399
4 *36:A *40:CLK 0.000499765
5 *36:A *40:RESET_B 0
6 *46:A counter_value_o[2] 0
7 *46:A *40:RESET_B 0.00212441
8 *46:A *42:A 0
9 *36:B *36:A 1.54556e-05
10 *45:A *46:A 0
11 *14:8 *36:A 0
*RES
1 *40:Q *46:A 49.4424 
2 *40:Q *36:A 46.8816 
*END

*D_NET *17 0.00290637
*CONN
*P enable_i I
*I *41:A I *D sg13g2_buf_1
*CAP
1 enable_i 0.000994009
2 *41:A 0.000459175
3 *17:11 0.00145318
4 *17:11 counter_value_o[0] 0
5 *17:11 counter_value_o[1] 0
6 *44:A *41:A 0
*RES
1 enable_i *17:11 49.1608 
2 *17:11 *41:A 24.7344 
*END

*D_NET *18 0.00403667
*CONN
*P reset_n_i I
*I *42:A I *D sg13g2_buf_2
*CAP
1 reset_n_i 0.00200735
2 *42:A 0.00200735
3 *42:A counter_value_o[2] 0
4 *42:A counter_value_o[3] 2.19663e-05
5 *46:A *42:A 0
*RES
1 reset_n_i *42:A 36.555 
*END

*D_NET *21 0.00345935
*CONN
*I *31:B I *D sg13g2_nand2_1
*I *33:C I *D sg13g2_nand3_1
*I *35:D I *D sg13g2_nand4_1
*I *30:B I *D sg13g2_xor2_1
*I *41:X O *D sg13g2_buf_1
*CAP
1 *31:B 0
2 *33:C 0.000381261
3 *35:D 5.14846e-05
4 *30:B 0
5 *41:X 0.000319469
6 *21:23 0.00104023
7 *21:19 0.000712704
8 *21:12 0.000105215
9 *21:10 0.000319469
10 *33:C *27:14 0
11 *35:D *27:14 7.96495e-05
12 *21:10 *27:29 0
13 *21:23 *40:CLK 0
14 *21:23 *27:14 0.000162184
15 *21:23 *27:29 0
16 *21:23 *29:10 0
17 *30:A *21:19 0.000287676
18 *33:B *33:C 0
19 *33:A *33:C 0
20 *34:A *33:C 0
21 *34:B *33:C 0
22 *39:D *33:C 0
23 *47:A *33:C 0
24 *1:10 *21:10 0
25 *7:10 *21:23 0
26 *13:10 *33:C 0
27 *13:55 *35:D 0
28 *13:55 *21:23 0
*RES
1 *41:X *21:10 42.8688 
2 *21:10 *21:12 20 
3 *21:12 *30:B 20 
4 *21:12 *21:19 1.144 
5 *21:19 *21:23 24.8928 
6 *21:23 *35:D 40.4576 
7 *21:23 *33:C 43.2912 
8 *21:19 *31:B 20 
*END

*D_NET *22 0.00545687
*CONN
*I *37:RESET_B I *D sg13g2_dfrbp_1
*I *39:RESET_B I *D sg13g2_dfrbp_1
*I *38:RESET_B I *D sg13g2_dfrbp_1
*I *40:RESET_B I *D sg13g2_dfrbp_1
*I *42:X O *D sg13g2_buf_2
*CAP
1 *37:RESET_B 0.000296764
2 *39:RESET_B 0.000443329
3 *38:RESET_B 0.000348529
4 *40:RESET_B 0.00123098
5 *42:X 0.000735889
6 *37:RESET_B *37:CLK 0.000276965
7 *37:RESET_B *39:CLK 0
8 *37:RESET_B *27:14 0
9 *36:A *40:RESET_B 0
10 *45:A *40:RESET_B 0
11 *46:A *40:RESET_B 0.00212441
12 *13:36 *37:RESET_B 0
13 *13:55 *37:RESET_B 0
14 *13:55 *38:RESET_B 0
15 *13:55 *39:RESET_B 0
16 *14:8 *38:RESET_B 0
*RES
1 *42:X *40:RESET_B 29.8648 
2 *40:RESET_B *38:RESET_B 43.2472 
3 *40:RESET_B *39:RESET_B 41.5664 
4 *39:RESET_B *37:RESET_B 43.036 
*END

*D_NET *23 0.00497001
*CONN
*P counter_value_o[0] O
*I *43:X O *D sg13g2_buf_1
*CAP
1 counter_value_o[0] 0.00107219
2 *43:X 0.000475888
3 *23:10 0.00154808
4 *43:A *23:10 0
5 *47:A counter_value_o[0] 0.00102934
6 *1:10 *23:10 0.000536289
7 *14:14 *23:10 0.000308217
8 *17:11 counter_value_o[0] 0
*RES
1 *43:X *23:10 44.7168 
2 *23:10 counter_value_o[0] 29.3368 
*END

*D_NET *24 0.00241168
*CONN
*P counter_value_o[1] O
*I *44:X O *D sg13g2_buf_1
*CAP
1 counter_value_o[1] 0.00120584
2 *44:X 0.00120584
3 *44:A counter_value_o[1] 0
4 *17:11 counter_value_o[1] 0
*RES
1 *44:X counter_value_o[1] 32.4344 
*END

*D_NET *25 0.00332038
*CONN
*P counter_value_o[2] O
*I *45:X O *D sg13g2_buf_1
*CAP
1 counter_value_o[2] 0.00166019
2 *45:X 0.00166019
3 counter_value_o[2] counter_value_o[3] 0
4 *42:A counter_value_o[2] 0
5 *46:A counter_value_o[2] 0
*RES
1 *45:X counter_value_o[2] 37.5032 
*END

*D_NET *26 0.0039393
*CONN
*P counter_value_o[3] O
*I *46:X O *D sg13g2_buf_1
*CAP
1 counter_value_o[3] 0.00195867
2 *46:X 0.00195867
3 counter_value_o[2] counter_value_o[3] 0
4 *42:A counter_value_o[3] 2.19663e-05
*RES
1 *46:X counter_value_o[3] 35.7168 
*END

*D_NET *27 0.00434748
*CONN
*I *49:A I *D sg13g2_buf_1
*I *48:A I *D sg13g2_buf_1
*I *47:X O *D sg13g2_buf_1
*CAP
1 *49:A 0
2 *48:A 0
3 *47:X 0
4 *27:29 0.00102144
5 *27:14 0.00103138
6 *27:4 0.00205282
7 *27:14 *37:CLK 0
8 *27:14 *28:10 0
9 *27:29 *29:10 0
10 *33:C *27:14 0
11 *35:D *27:14 7.96495e-05
12 *37:RESET_B *27:14 0
13 *39:D *27:14 0
14 *2:8 *27:29 0
15 *5:10 *27:29 0
16 *13:36 *27:14 0
17 *21:10 *27:29 0
18 *21:23 *27:14 0.000162184
19 *21:23 *27:29 0
*RES
1 *47:X *27:4 20 
2 *27:4 *27:14 49.8736 
3 *27:14 *48:A 20 
4 *27:4 *27:29 49.8912 
5 *27:29 *49:A 20 
*END

*D_NET *28 0.00285047
*CONN
*I *39:CLK I *D sg13g2_dfrbp_1
*I *37:CLK I *D sg13g2_dfrbp_1
*I *48:X O *D sg13g2_buf_1
*CAP
1 *39:CLK 0.000308761
2 *37:CLK 0.000617944
3 *48:X 0.00036005
4 *28:10 0.00128676
5 *37:RESET_B *37:CLK 0.000276965
6 *37:RESET_B *39:CLK 0
7 *13:6 *37:CLK 0
8 *13:10 *37:CLK 0
9 *15:8 *37:CLK 0
10 *15:8 *39:CLK 0
11 *27:14 *37:CLK 0
12 *27:14 *28:10 0
*RES
1 *48:X *28:10 43.2648 
2 *28:10 *37:CLK 45.368 
3 *28:10 *39:CLK 42.7104 
*END

*D_NET *29 0.00387722
*CONN
*I *38:CLK I *D sg13g2_dfrbp_1
*I *40:CLK I *D sg13g2_dfrbp_1
*I *49:X O *D sg13g2_buf_1
*CAP
1 *38:CLK 0.00034984
2 *40:CLK 0.000368816
3 *49:X 0.000678211
4 *29:10 0.00139687
5 *36:A *40:CLK 0.000499765
6 *40:D *40:CLK 0
7 *5:10 *38:CLK 0
8 *13:55 *40:CLK 0.000242774
9 *13:55 *29:10 0.000340944
10 *14:8 *38:CLK 0
11 *21:23 *40:CLK 0
12 *21:23 *29:10 0
13 *27:29 *29:10 0
*RES
1 *49:X *29:10 46.776 
2 *29:10 *40:CLK 43.6432 
3 *29:10 *38:CLK 42.6224 
*END
