*SPEF "ieee 1481-1999"
*DESIGN "counter_board"
*DATE "15:49:17 Wednesday December 18, 2024"
*VENDOR "The OpenROAD Project"
*PROGRAM "OpenROAD"
*VERSION "v2.0-17595-gdb3156281"
*DESIGN_FLOW "NAME_SCOPE LOCAL" "PIN_CAP NONE"
*DIVIDER /
*DELIMITER :
*BUS_DELIMITER []
*T_UNIT 1 NS
*C_UNIT 1 PF
*R_UNIT 1 OHM
*L_UNIT 1 HENRY

*NAME_MAP
*1 clock_i
*2 net3
*3 net4
*4 net5
*5 net6
*6 enable_i
*7 n1_o
*8 reset_n_i
*9 counter_0/_00_
*10 counter_0/_01_
*11 counter_0/_02_
*12 counter_0/_03_
*13 counter_0/_04_
*14 counter_0/_05_
*15 counter_0/_06_
*16 counter_0/_07_
*17 counter_0/_08_
*18 counter_0/_09_
*19 counter_0/_10_
*20 counter_0/_11_
*23 net1
*24 net2
*25 counter_value_o[0]
*26 counter_value_o[1]
*27 counter_value_o[2]
*28 counter_value_o[3]
*29 clknet_0_clock_i
*30 clknet_1_0__leaf_clock_i
*31 clknet_1_1__leaf_clock_i
*32 _0_
*33 counter_0/_12_
*34 counter_0/_13_
*35 counter_0/_14_
*36 counter_0/_15_
*37 counter_0/_16_
*38 counter_0/_17_
*39 counter_0/_18_
*40 counter_0/_19_
*41 counter_0/n20_q\[0\]\$_DFFE_PP0P_
*42 counter_0/n20_q\[1\]\$_DFFE_PP0P_
*43 counter_0/n20_q\[2\]\$_DFFE_PP0P_
*44 counter_0/n20_q\[3\]\$_DFFE_PP0P_
*45 input1
*46 input2
*47 output3
*48 output4
*49 output5
*50 output6
*51 clkbuf_0_clock_i
*52 clkbuf_1_0__f_clock_i
*53 clkbuf_1_1__f_clock_i
*54 FILLER_0_0
*55 FILLER_0_7
*56 FILLER_0_14
*57 FILLER_0_21
*58 FILLER_0_28
*59 FILLER_0_35
*60 FILLER_0_42
*61 FILLER_0_49
*62 FILLER_0_56
*63 FILLER_0_63
*64 FILLER_0_70
*65 FILLER_0_77
*66 FILLER_0_84
*67 FILLER_0_91
*68 FILLER_0_98
*69 FILLER_0_105
*70 FILLER_0_112
*71 FILLER_0_119
*72 FILLER_0_123
*73 FILLER_1_0
*74 FILLER_1_7
*75 FILLER_1_14
*76 FILLER_1_21
*77 FILLER_1_28
*78 FILLER_1_35
*79 FILLER_1_42
*80 FILLER_1_49
*81 FILLER_1_56
*82 FILLER_1_63
*83 FILLER_1_70
*84 FILLER_1_77
*85 FILLER_1_84
*86 FILLER_1_91
*87 FILLER_1_98
*88 FILLER_1_105
*89 FILLER_1_112
*90 FILLER_1_119
*91 FILLER_1_123
*92 FILLER_2_0
*93 FILLER_2_7
*94 FILLER_2_14
*95 FILLER_2_21
*96 FILLER_2_28
*97 FILLER_2_35
*98 FILLER_2_42
*99 FILLER_2_49
*100 FILLER_2_56
*101 FILLER_2_63
*102 FILLER_2_70
*103 FILLER_2_77
*104 FILLER_2_84
*105 FILLER_2_91
*106 FILLER_2_98
*107 FILLER_2_105
*108 FILLER_2_112
*109 FILLER_2_119
*110 FILLER_2_123
*111 FILLER_3_0
*112 FILLER_3_7
*113 FILLER_3_14
*114 FILLER_3_21
*115 FILLER_3_28
*116 FILLER_3_35
*117 FILLER_3_42
*118 FILLER_3_49
*119 FILLER_3_56
*120 FILLER_3_63
*121 FILLER_3_70
*122 FILLER_3_77
*123 FILLER_3_84
*124 FILLER_3_91
*125 FILLER_3_98
*126 FILLER_3_105
*127 FILLER_3_112
*128 FILLER_3_119
*129 FILLER_3_123
*130 FILLER_4_8
*131 FILLER_4_15
*132 FILLER_4_22
*133 FILLER_4_29
*134 FILLER_4_36
*135 FILLER_4_43
*136 FILLER_4_50
*137 FILLER_4_57
*138 FILLER_4_64
*139 FILLER_4_71
*140 FILLER_4_78
*141 FILLER_4_85
*142 FILLER_4_92
*143 FILLER_4_99
*144 FILLER_4_106
*145 FILLER_4_113
*146 FILLER_4_120
*147 FILLER_5_0
*148 FILLER_5_28
*149 FILLER_5_35
*150 FILLER_5_42
*151 FILLER_5_49
*152 FILLER_5_56
*153 FILLER_5_63
*154 FILLER_5_70
*155 FILLER_5_77
*156 FILLER_5_84
*157 FILLER_5_91
*158 FILLER_5_98
*159 FILLER_5_105
*160 FILLER_5_112
*161 FILLER_5_119
*162 FILLER_5_123
*163 FILLER_6_9
*164 FILLER_6_14
*165 FILLER_6_49
*166 FILLER_6_56
*167 FILLER_6_63
*168 FILLER_6_70
*169 FILLER_6_77
*170 FILLER_6_84
*171 FILLER_6_91
*172 FILLER_6_98
*173 FILLER_6_105
*174 FILLER_6_112
*175 FILLER_6_119
*176 FILLER_6_123
*177 FILLER_7_0
*178 FILLER_7_35
*179 FILLER_7_42
*180 FILLER_7_49
*181 FILLER_7_56
*182 FILLER_7_63
*183 FILLER_7_70
*184 FILLER_7_77
*185 FILLER_7_84
*186 FILLER_7_91
*187 FILLER_7_93
*188 FILLER_7_102
*189 FILLER_7_109
*190 FILLER_7_116
*191 FILLER_7_123
*192 FILLER_8_0
*193 FILLER_8_58
*194 FILLER_8_65
*195 FILLER_8_72
*196 FILLER_8_79
*197 FILLER_8_86
*198 FILLER_8_93
*199 FILLER_8_100
*200 FILLER_8_107
*201 FILLER_8_114
*202 FILLER_8_121
*203 FILLER_8_123
*204 FILLER_9_12
*205 FILLER_9_17
*206 FILLER_9_24
*207 FILLER_9_31
*208 FILLER_9_38
*209 FILLER_9_45
*210 FILLER_9_52
*211 FILLER_9_59
*212 FILLER_9_66
*213 FILLER_9_73
*214 FILLER_9_80
*215 FILLER_9_87
*216 FILLER_9_94
*217 FILLER_9_101
*218 FILLER_9_108
*219 FILLER_9_115
*220 FILLER_9_122
*221 FILLER_10_0
*222 FILLER_10_7
*223 FILLER_10_14
*224 FILLER_10_21
*225 FILLER_10_28
*226 FILLER_10_35
*227 FILLER_10_42
*228 FILLER_10_49
*229 FILLER_10_56
*230 FILLER_10_63
*231 FILLER_10_70
*232 FILLER_10_77
*233 FILLER_10_84
*234 FILLER_10_91
*235 FILLER_10_98
*236 FILLER_10_105
*237 FILLER_10_112
*238 FILLER_10_119
*239 FILLER_10_123
*240 FILLER_11_0
*241 FILLER_11_7
*242 FILLER_11_14
*243 FILLER_11_21
*244 FILLER_11_28
*245 FILLER_11_35
*246 FILLER_11_42
*247 FILLER_11_49
*248 FILLER_11_56
*249 FILLER_11_63
*250 FILLER_11_70
*251 FILLER_11_77
*252 FILLER_11_84
*253 FILLER_11_91
*254 FILLER_11_98
*255 FILLER_11_105
*256 FILLER_11_112
*257 FILLER_11_119
*258 FILLER_11_123
*259 FILLER_12_0
*260 FILLER_12_7
*261 FILLER_12_14
*262 FILLER_12_21
*263 FILLER_12_28
*264 FILLER_12_35
*265 FILLER_12_42
*266 FILLER_12_49
*267 FILLER_12_56
*268 FILLER_12_63
*269 FILLER_12_70
*270 FILLER_12_77
*271 FILLER_12_84
*272 FILLER_12_91
*273 FILLER_12_98
*274 FILLER_12_105
*275 FILLER_12_112
*276 FILLER_12_119
*277 FILLER_12_123
*278 FILLER_13_0
*279 FILLER_13_7
*280 FILLER_13_14
*281 FILLER_13_21
*282 FILLER_13_28
*283 FILLER_13_35
*284 FILLER_13_42
*285 FILLER_13_49
*286 FILLER_13_56
*287 FILLER_13_63
*288 FILLER_13_70
*289 FILLER_13_77
*290 FILLER_13_84
*291 FILLER_13_91
*292 FILLER_13_98
*293 FILLER_13_105
*294 FILLER_13_112
*295 FILLER_13_119
*296 FILLER_13_123
*297 FILLER_14_0
*298 FILLER_14_7
*299 FILLER_14_14
*300 FILLER_14_21
*301 FILLER_14_28
*302 FILLER_14_35
*303 FILLER_14_42
*304 FILLER_14_49
*305 FILLER_14_56
*306 FILLER_14_63
*307 FILLER_14_70
*308 FILLER_14_77
*309 FILLER_14_84
*310 FILLER_14_91
*311 FILLER_14_98
*312 FILLER_14_105
*313 FILLER_14_112
*314 FILLER_14_119
*315 FILLER_14_123

*PORTS
clock_i I
counter_value_o[0] O
counter_value_o[1] O
counter_value_o[2] O
counter_value_o[3] O
enable_i I
reset_n_i I

*D_NET *1 0.00282345
*CONN
*P clock_i I
*I *51:A I *D sg13g2_buf_1
*CAP
1 clock_i 0.00141172
2 *51:A 0.00141172
3 *51:A *38:B 0
4 *51:A *39:D 0
5 *51:A *40:A 0
6 *51:A *40:B 0
7 *51:A *43:RESET_B 0
8 *51:A *2:16 0
9 *51:A *8:11 0
10 *51:A *9:6 0
11 *51:A *26:10 0
12 *51:A *31:18 0
*RES
1 clock_i *51:A 31.6688 
*END

*D_NET *2 0.00451591
*CONN
*I *34:A I *D sg13g2_xor2_1
*I *37:B I *D sg13g2_nand3_1
*I *47:A I *D sg13g2_buf_1
*I *35:A I *D sg13g2_nand2_1
*I *39:B I *D sg13g2_nand4_1
*I *41:Q O *D sg13g2_dfrbp_1
*CAP
1 *34:A 0
2 *37:B 0.000365069
3 *47:A 0
4 *35:A 0
5 *39:B 0
6 *41:Q 0
7 *2:51 0.000695238
8 *2:40 0.000751195
9 *2:29 0.00089219
10 *2:16 0.000275551
11 *2:4 0.000746714
12 *37:B *37:C 0
13 *37:B *38:B 0
14 *37:B *42:D 0
15 *37:B *48:A 0
16 *37:B *8:11 0.000307248
17 *37:B *26:10 0
18 *2:16 *36:B 0
19 *2:16 *39:A 4.69557e-05
20 *2:16 *40:B 0.000181611
21 *2:16 *41:RESET_B 0
22 *2:16 *13:10 0
23 *2:16 *14:8 0
24 *2:29 *41:RESET_B 0
25 *2:40 *35:B 0
26 *2:40 *6:15 0
27 *2:40 *23:12 0
28 *2:51 *37:C 0
29 *2:51 *6:15 7.51684e-05
30 *2:51 *10:10 0.00017897
31 *2:51 *23:12 0
32 *51:A *2:16 0
*RES
1 *41:Q *2:4 20 
2 *2:4 *2:16 42.8402 
3 *2:16 *39:B 20 
4 *2:4 *2:29 44.7168 
5 *2:29 *35:A 20 
6 *2:29 *2:40 3.9864 
7 *2:40 *47:A 20 
8 *2:40 *2:51 23.5288 
9 *2:51 *37:B 43.4034 
10 *2:51 *34:A 40 
*END

*D_NET *3 0.00329055
*CONN
*I *39:A I *D sg13g2_nand4_1
*I *36:A I *D sg13g2_xnor2_1
*I *48:A I *D sg13g2_buf_1
*I *37:A I *D sg13g2_nand3_1
*I *42:Q O *D sg13g2_dfrbp_1
*CAP
1 *39:A 1.62415e-05
2 *36:A 0
3 *48:A 0.000194553
4 *37:A 5.49479e-05
5 *42:Q 0.000481435
6 *3:46 0
7 *3:20 0.000508574
8 *3:14 0.000439023
9 *3:10 0.000677627
10 *37:A *38:B 2.20968e-05
11 *37:A *41:CLK 8.03372e-05
12 *37:A *24:10 8.00835e-05
13 *48:A *26:10 0.000154717
14 *3:10 *42:RESET_B 0
15 *3:10 *43:D 0
16 *3:10 *44:RESET_B 0
17 *3:10 *4:10 0
18 *3:10 *4:20 0
19 *3:20 *41:CLK 0.00025982
20 *3:20 *24:10 0.00027414
21 *37:B *48:A 0
22 *2:16 *39:A 4.69557e-05
*RES
1 *42:Q *3:10 44.1888 
2 *3:10 *3:14 21.9888 
3 *3:14 *3:20 22.7104 
4 *3:20 *37:A 40.6116 
5 *3:20 *48:A 41.8392 
6 *3:14 *3:46 40 
7 *3:46 *36:A 20 
8 *3:10 *39:A 40.187 
*END

*D_NET *4 0.00475389
*CONN
*I *49:A I *D sg13g2_buf_1
*I *38:A I *D sg13g2_xnor2_1
*I *39:C I *D sg13g2_nand4_1
*I *43:Q O *D sg13g2_dfrbp_1
*CAP
1 *49:A 0
2 *38:A 0
3 *39:C 0
4 *43:Q 0
5 *4:36 0.00121757
6 *4:20 0.000239463
7 *4:10 0.000917899
8 *4:4 0.001896
9 *4:10 *38:B 0
10 *4:10 *43:RESET_B 0.000265579
11 *4:10 *43:D 4.79124e-05
12 *4:10 *9:6 7.51291e-05
13 *4:10 *29:29 0
14 *4:10 *31:18 0
15 *4:20 *39:D 4.65934e-05
16 *4:20 *42:RESET_B 4.77421e-05
17 *4:20 *7:10 0
18 *4:20 *11:8 0
19 *4:36 counter_value_o[3] 0
20 *4:36 *29:29 0
21 *3:10 *4:10 0
22 *3:10 *4:20 0
*RES
1 *43:Q *4:4 20 
2 *4:4 *4:10 6.7584 
3 *4:10 *4:20 42.189 
4 *4:20 *39:C 20 
5 *4:10 *38:A 20 
6 *4:4 *4:36 32.98 
7 *4:36 *49:A 40 
*END

*D_NET *5 0.00331975
*CONN
*I *50:A I *D sg13g2_buf_1
*I *40:A I *D sg13g2_xnor2_1
*I *44:Q O *D sg13g2_dfrbp_1
*CAP
1 *50:A 0.000856335
2 *40:A 0.000641198
3 *44:Q 0.00016234
4 *5:10 0.00149753
5 *5:8 0.00016234
6 *40:A *13:10 0
7 *40:A *29:29 0
8 *40:A *31:10 0
9 *50:A *29:29 0
10 *50:A *31:10 0
11 *5:8 *29:29 0
12 *51:A *40:A 0
*RES
1 *44:Q *5:8 41.3816 
2 *5:8 *5:10 20 
3 *5:10 *40:A 25.852 
4 *5:10 *50:A 28.9584 
*END

*D_NET *6 0.0023502
*CONN
*P enable_i I
*I *45:A I *D sg13g2_buf_1
*CAP
1 enable_i 0.00082071
2 *45:A 0
3 *6:15 0.00082071
4 *6:15 counter_value_o[1] 0
5 *6:15 *35:B 0
6 *6:15 *25:10 0.000633613
7 *2:40 *6:15 0
8 *2:51 *6:15 7.51684e-05
*RES
1 enable_i *6:15 48.36 
2 *6:15 *45:A 20 
*END

*D_NET *7 0.00125739
*CONN
*I *33:A I *D sg13g2_inv_2
*I *32:Y O *D sg13g2_inv_2
*CAP
1 *33:A 0
2 *32:Y 0.000628696
3 *7:10 0.000628696
4 *7:10 *11:8 0
5 *7:10 *14:8 0
6 *7:10 *24:10 0
7 *4:20 *7:10 0
*RES
1 *32:Y *7:10 45.0072 
2 *7:10 *33:A 40 
*END

*D_NET *8 0.00295744
*CONN
*P reset_n_i I
*I *46:A I *D sg13g2_buf_1
*CAP
1 reset_n_i 0.00121104
2 *46:A 4.97478e-05
3 *8:11 0.00126079
4 *46:A *52:A 0.000128618
5 *46:A *30:10 0
6 *8:11 counter_value_o[1] 0
7 *8:11 *37:C 0
8 *8:11 *41:CLK 0
9 *8:11 *24:10 0
10 *8:11 *30:10 0
11 *37:B *8:11 0.000307248
12 *51:A *8:11 0
*RES
1 reset_n_i *8:11 49.6096 
2 *8:11 *46:A 20.5104 
*END

*D_NET *9 0.00338631
*CONN
*I *41:RESET_B I *D sg13g2_dfrbp_1
*I *44:RESET_B I *D sg13g2_dfrbp_1
*I *43:RESET_B I *D sg13g2_dfrbp_1
*I *42:RESET_B I *D sg13g2_dfrbp_1
*I *33:Y O *D sg13g2_inv_2
*CAP
1 *41:RESET_B 0.000252964
2 *44:RESET_B 0.000584974
3 *43:RESET_B 0.000439993
4 *42:RESET_B 0.000213737
5 *33:Y 0.000218747
6 *9:6 0.000540467
7 *41:RESET_B *40:B 0
8 *41:RESET_B *44:D 0
9 *42:RESET_B *11:8 0
10 *44:RESET_B *13:10 0.000177674
11 *44:RESET_B *31:18 0.000569301
12 *9:6 *38:B 0
13 *51:A *43:RESET_B 0
14 *51:A *9:6 0
15 *2:16 *41:RESET_B 0
16 *2:29 *41:RESET_B 0
17 *3:10 *42:RESET_B 0
18 *3:10 *44:RESET_B 0
19 *4:10 *43:RESET_B 0.000265579
20 *4:10 *9:6 7.51291e-05
21 *4:20 *42:RESET_B 4.77421e-05
*RES
1 *33:Y *9:6 21.7776 
2 *9:6 *42:RESET_B 41.936 
3 *9:6 *43:RESET_B 1.3112 
4 *43:RESET_B *44:RESET_B 43.4144 
5 *44:RESET_B *41:RESET_B 2.3232 
*END

*D_NET *10 0.000615533
*CONN
*I *41:D I *D sg13g2_dfrbp_1
*I *34:X O *D sg13g2_xor2_1
*CAP
1 *41:D 0
2 *34:X 0.000218281
3 *10:10 0.000218281
4 *10:10 *23:12 0
5 *2:51 *10:10 0.00017897
*RES
1 *34:X *10:10 41.9448 
2 *10:10 *41:D 40 
*END

*D_NET *11 0.00109652
*CONN
*I *42:D I *D sg13g2_dfrbp_1
*I *36:Y O *D sg13g2_xnor2_1
*CAP
1 *42:D 0.000267189
2 *36:Y 0.000281072
3 *11:8 0.000548261
4 *42:D *38:B 0
5 *42:D *24:10 0
6 *42:D *30:10 0
7 *11:8 *24:10 0
8 *37:B *42:D 0
9 *42:RESET_B *11:8 0
10 *4:20 *11:8 0
11 *7:10 *11:8 0
*RES
1 *36:Y *11:8 42.6752 
2 *11:8 *42:D 42.4112 
*END

*D_NET *12 0.000236197
*CONN
*I *43:D I *D sg13g2_dfrbp_1
*I *38:Y O *D sg13g2_xnor2_1
*CAP
1 *43:D 9.41423e-05
2 *38:Y 9.41423e-05
3 *43:D *38:B 0
4 *3:10 *43:D 0
5 *4:10 *43:D 4.79124e-05
*RES
1 *38:Y *43:D 40.7832 
*END

*D_NET *13 0.000563576
*CONN
*I *44:D I *D sg13g2_dfrbp_1
*I *40:Y O *D sg13g2_xnor2_1
*CAP
1 *44:D 5.85979e-05
2 *40:Y 0.000134353
3 *13:10 0.000192951
4 *40:A *13:10 0
5 *41:RESET_B *44:D 0
6 *44:RESET_B *13:10 0.000177674
7 *2:16 *13:10 0
*RES
1 *40:Y *13:10 41.3112 
2 *13:10 *44:D 40.5104 
*END

*D_NET *14 0.000763673
*CONN
*I *36:B I *D sg13g2_xnor2_1
*I *35:Y O *D sg13g2_nand2_1
*CAP
1 *36:B 0.00012195
2 *35:Y 0.000259886
3 *14:8 0.000381836
4 *36:B *39:D 0
5 *2:16 *36:B 0
6 *2:16 *14:8 0
7 *7:10 *14:8 0
*RES
1 *35:Y *14:8 42.6752 
2 *14:8 *36:B 40.9944 
*END

*D_NET *15 0.000659953
*CONN
*I *38:B I *D sg13g2_xnor2_1
*I *37:Y O *D sg13g2_nand3_1
*CAP
1 *38:B 0.000318928
2 *37:Y 0.000318928
3 *37:B *38:B 0
4 *37:A *38:B 2.20968e-05
5 *42:D *38:B 0
6 *43:D *38:B 0
7 *51:A *38:B 0
8 *4:10 *38:B 0
9 *9:6 *38:B 0
*RES
1 *37:Y *38:B 42.7456 
*END

*D_NET *16 0.000423785
*CONN
*I *40:B I *D sg13g2_xnor2_1
*I *39:Y O *D sg13g2_nand4_1
*CAP
1 *40:B 0.000121087
2 *39:Y 0.000121087
3 *41:RESET_B *40:B 0
4 *51:A *40:B 0
5 *2:16 *40:B 0.000181611
*RES
1 *39:Y *40:B 41.3904 
*END

*D_NET *23 0.0029675
*CONN
*I *35:B I *D sg13g2_nand2_1
*I *34:B I *D sg13g2_xor2_1
*I *39:D I *D sg13g2_nand4_1
*I *37:C I *D sg13g2_nand3_1
*I *45:X O *D sg13g2_buf_1
*CAP
1 *35:B 0.000264504
2 *34:B 0
3 *39:D 0.000418071
4 *37:C 0.000272952
5 *45:X 0
6 *23:23 0.000418071
7 *23:12 0.000639784
8 *23:4 0.000631336
9 *37:C *41:CLK 0
10 *23:12 *41:CLK 0.000276189
11 *23:12 *24:10 0
12 *36:B *39:D 0
13 *37:B *37:C 0
14 *51:A *39:D 0
15 *2:40 *35:B 0
16 *2:40 *23:12 0
17 *2:51 *37:C 0
18 *2:51 *23:12 0
19 *4:20 *39:D 4.65934e-05
20 *6:15 *35:B 0
21 *8:11 *37:C 0
22 *10:10 *23:12 0
*RES
1 *45:X *23:4 20 
2 *23:4 *23:12 23.564 
3 *23:12 *37:C 41.936 
4 *23:12 *23:23 20 
5 *23:23 *39:D 23.3792 
6 *23:23 *34:B 20 
7 *23:4 *35:B 22.2792 
*END

*D_NET *24 0.00248694
*CONN
*I *32:A I *D sg13g2_inv_2
*I *46:X O *D sg13g2_buf_1
*CAP
1 *32:A 0
2 *46:X 0.00106636
3 *24:10 0.00106636
4 *24:10 *41:CLK 0
5 *24:10 *52:A 0
6 *24:10 *30:10 0
7 *37:A *24:10 8.00835e-05
8 *42:D *24:10 0
9 *3:20 *24:10 0.00027414
10 *7:10 *24:10 0
11 *8:11 *24:10 0
12 *11:8 *24:10 0
13 *23:12 *24:10 0
*RES
1 *46:X *24:10 48.624 
2 *24:10 *32:A 40 
*END

*D_NET *25 0.0019798
*CONN
*P counter_value_o[0] O
*I *47:X O *D sg13g2_buf_1
*CAP
1 counter_value_o[0] 6.98254e-05
2 *47:X 0.000603266
3 *25:10 0.000673091
4 *6:15 *25:10 0.000633613
*RES
1 *47:X *25:10 46.5912 
2 *25:10 counter_value_o[0] 20.7128 
*END

*D_NET *26 0.00180036
*CONN
*P counter_value_o[1] O
*I *48:X O *D sg13g2_buf_1
*CAP
1 counter_value_o[1] 0.000477436
2 *48:X 0.000345386
3 *26:10 0.000822822
4 *37:B *26:10 0
5 *48:A *26:10 0.000154717
6 *51:A *26:10 0
7 *6:15 counter_value_o[1] 0
8 *8:11 counter_value_o[1] 0
*RES
1 *48:X *26:10 43.2648 
2 *26:10 counter_value_o[1] 23.212 
*END

*D_NET *27 0.00300806
*CONN
*P counter_value_o[2] O
*I *49:X O *D sg13g2_buf_1
*CAP
1 counter_value_o[2] 0.000922323
2 *49:X 0.000922323
3 counter_value_o[2] counter_value_o[3] 0.00116342
*RES
1 *49:X counter_value_o[2] 29.592 
*END

*D_NET *28 0.00313889
*CONN
*P counter_value_o[3] O
*I *50:X O *D sg13g2_buf_1
*CAP
1 counter_value_o[3] 0.000987735
2 *50:X 0.000987735
3 counter_value_o[2] counter_value_o[3] 0.00116342
4 *4:36 counter_value_o[3] 0
*RES
1 *50:X counter_value_o[3] 30.076 
*END

*D_NET *29 0.0041662
*CONN
*I *53:A I *D sg13g2_buf_1
*I *52:A I *D sg13g2_buf_1
*I *51:X O *D sg13g2_buf_1
*CAP
1 *53:A 0
2 *52:A 0.000698338
3 *51:X 0
4 *29:29 0.000736396
5 *29:12 0.00116047
6 *29:4 0.00119853
7 *52:A *30:10 0
8 *29:12 *31:18 0.000243847
9 *40:A *29:29 0
10 *46:A *52:A 0.000128618
11 *50:A *29:29 0
12 *4:10 *29:29 0
13 *4:36 *29:29 0
14 *5:8 *29:29 0
15 *24:10 *52:A 0
*RES
1 *51:X *29:4 20 
2 *29:4 *29:12 44.9016 
3 *29:12 *52:A 27.3304 
4 *29:4 *29:29 46.7232 
5 *29:29 *53:A 20 
*END

*D_NET *30 0.00229176
*CONN
*I *41:CLK I *D sg13g2_dfrbp_1
*I *42:CLK I *D sg13g2_dfrbp_1
*I *52:X O *D sg13g2_buf_1
*CAP
1 *41:CLK 0.000571619
2 *42:CLK 0
3 *52:X 0.000266088
4 *30:10 0.000837707
5 *37:C *41:CLK 0
6 *37:A *41:CLK 8.03372e-05
7 *42:D *30:10 0
8 *46:A *30:10 0
9 *52:A *30:10 0
10 *3:20 *41:CLK 0.00025982
11 *8:11 *41:CLK 0
12 *8:11 *30:10 0
13 *23:12 *41:CLK 0.000276189
14 *24:10 *41:CLK 0
15 *24:10 *30:10 0
*RES
1 *52:X *30:10 42.2088 
2 *30:10 *42:CLK 40 
3 *30:10 *41:CLK 44.8928 
*END

*D_NET *31 0.00282623
*CONN
*I *44:CLK I *D sg13g2_dfrbp_1
*I *43:CLK I *D sg13g2_dfrbp_1
*I *53:X O *D sg13g2_buf_1
*CAP
1 *44:CLK 0
2 *43:CLK 0
3 *53:X 0.000545373
4 *31:18 0.000461166
5 *31:10 0.00100654
6 *40:A *31:10 0
7 *44:RESET_B *31:18 0.000569301
8 *50:A *31:10 0
9 *51:A *31:18 0
10 *4:10 *31:18 0
11 *29:12 *31:18 0.000243847
*RES
1 *53:X *31:10 25.6232 
2 *31:10 *31:18 44.5584 
3 *31:18 *43:CLK 20 
4 *31:10 *44:CLK 20 
*END
