*SPEF "ieee 1481-1999"
*DESIGN "counter_board"
*DATE "17:33:35 Monday July 28, 2025"
*VENDOR "The OpenROAD Project"
*PROGRAM "OpenROAD"
*VERSION "v2.0-23079-g93b6f40ec"
*DESIGN_FLOW "NAME_SCOPE LOCAL" "PIN_CAP NONE"
*DIVIDER /
*DELIMITER :
*BUS_DELIMITER []
*T_UNIT 1 NS
*C_UNIT 1 PF
*R_UNIT 1 OHM
*L_UNIT 1 HENRY

*NAME_MAP
*1 clock_i
*2 net3
*3 net4
*4 net5
*5 net6
*6 enable_i
*7 n1
*8 reset_n_i
*9 counter_0/_00_
*10 counter_0/_01_
*11 counter_0/_02_
*12 counter_0/_03_
*13 counter_0/_04_
*14 counter_0/_05_
*15 counter_0/_06_
*16 counter_0/_07_
*17 counter_0/_08_
*18 counter_0/_09_
*19 counter_0/_10_
*20 counter_0/_11_
*23 net1
*24 net2
*25 counter_value_o[0]
*26 counter_value_o[1]
*27 counter_value_o[2]
*28 counter_value_o[3]
*29 clknet_0_clock_i
*30 clknet_1_0__leaf_clock_i
*31 clknet_1_1__leaf_clock_i
*32 _0_
*33 counter_0/_12_
*34 counter_0/_13_
*35 counter_0/_14_
*36 counter_0/_15_
*37 counter_0/_16_
*38 counter_0/_17_
*39 counter_0/_18_
*40 counter_0/_19_
*41 counter_0/n20\[0\]\$_DFFE_PP0P_
*42 counter_0/n20\[1\]\$_DFFE_PP0P_
*43 counter_0/n20\[2\]\$_DFFE_PP0P_
*44 counter_0/n20\[3\]\$_DFFE_PP0P_
*45 input1
*46 input2
*47 output3
*48 output4
*49 output5
*50 output6
*51 clkbuf_0_clock_i
*52 clkbuf_1_0__f_clock_i
*53 clkbuf_1_1__f_clock_i
*54 FILLER_0_0
*55 FILLER_0_7
*56 FILLER_0_14
*57 FILLER_0_21
*58 FILLER_0_28
*59 FILLER_0_35
*60 FILLER_0_42
*61 FILLER_0_49
*62 FILLER_0_56
*63 FILLER_0_63
*64 FILLER_0_70
*65 FILLER_0_77
*66 FILLER_0_84
*67 FILLER_0_91
*68 FILLER_0_98
*69 FILLER_0_105
*70 FILLER_0_112
*71 FILLER_0_119
*72 FILLER_0_123
*73 FILLER_1_0
*74 FILLER_1_7
*75 FILLER_1_14
*76 FILLER_1_21
*77 FILLER_1_28
*78 FILLER_1_35
*79 FILLER_1_42
*80 FILLER_1_49
*81 FILLER_1_56
*82 FILLER_1_63
*83 FILLER_1_70
*84 FILLER_1_77
*85 FILLER_1_84
*86 FILLER_1_91
*87 FILLER_1_98
*88 FILLER_1_105
*89 FILLER_1_112
*90 FILLER_1_119
*91 FILLER_1_123
*92 FILLER_2_0
*93 FILLER_2_7
*94 FILLER_2_14
*95 FILLER_2_21
*96 FILLER_2_28
*97 FILLER_2_35
*98 FILLER_2_42
*99 FILLER_2_49
*100 FILLER_2_56
*101 FILLER_2_63
*102 FILLER_2_70
*103 FILLER_2_77
*104 FILLER_2_84
*105 FILLER_2_91
*106 FILLER_2_98
*107 FILLER_2_105
*108 FILLER_2_112
*109 FILLER_2_119
*110 FILLER_2_123
*111 FILLER_3_0
*112 FILLER_3_7
*113 FILLER_3_14
*114 FILLER_3_21
*115 FILLER_3_28
*116 FILLER_3_35
*117 FILLER_3_42
*118 FILLER_3_49
*119 FILLER_3_56
*120 FILLER_3_63
*121 FILLER_3_70
*122 FILLER_3_77
*123 FILLER_3_84
*124 FILLER_3_91
*125 FILLER_3_98
*126 FILLER_3_105
*127 FILLER_3_112
*128 FILLER_3_119
*129 FILLER_3_123
*130 FILLER_4_0
*131 FILLER_4_7
*132 FILLER_4_14
*133 FILLER_4_21
*134 FILLER_4_28
*135 FILLER_4_35
*136 FILLER_4_42
*137 FILLER_4_49
*138 FILLER_4_56
*139 FILLER_4_63
*140 FILLER_4_70
*141 FILLER_4_77
*142 FILLER_4_84
*143 FILLER_4_91
*144 FILLER_4_98
*145 FILLER_4_105
*146 FILLER_4_112
*147 FILLER_4_119
*148 FILLER_4_123
*149 FILLER_5_0
*150 FILLER_5_7
*151 FILLER_5_14
*152 FILLER_5_21
*153 FILLER_5_28
*154 FILLER_5_35
*155 FILLER_5_42
*156 FILLER_5_49
*157 FILLER_5_56
*158 FILLER_5_63
*159 FILLER_5_70
*160 FILLER_5_77
*161 FILLER_5_84
*162 FILLER_5_90
*163 FILLER_5_92
*164 FILLER_5_99
*165 FILLER_5_106
*166 FILLER_5_113
*167 FILLER_5_120
*168 FILLER_6_0
*169 FILLER_6_7
*170 FILLER_6_14
*171 FILLER_6_21
*172 FILLER_6_28
*173 FILLER_6_35
*174 FILLER_6_42
*175 FILLER_6_49
*176 FILLER_6_56
*177 FILLER_6_60
*178 FILLER_6_69
*179 FILLER_6_76
*180 FILLER_6_86
*181 FILLER_6_121
*182 FILLER_6_123
*183 FILLER_7_0
*184 FILLER_7_7
*185 FILLER_7_14
*186 FILLER_7_21
*187 FILLER_7_28
*188 FILLER_7_35
*189 FILLER_7_40
*190 FILLER_7_44
*191 FILLER_7_50
*192 FILLER_7_55
*193 FILLER_7_121
*194 FILLER_7_123
*195 FILLER_8_0
*196 FILLER_8_7
*197 FILLER_8_14
*198 FILLER_8_21
*199 FILLER_8_28
*200 FILLER_8_35
*201 FILLER_8_42
*202 FILLER_8_49
*203 FILLER_8_56
*204 FILLER_8_63
*205 FILLER_8_70
*206 FILLER_8_72
*207 FILLER_8_90
*208 FILLER_9_0
*209 FILLER_9_7
*210 FILLER_9_14
*211 FILLER_9_21
*212 FILLER_9_28
*213 FILLER_9_35
*214 FILLER_9_42
*215 FILLER_9_49
*216 FILLER_9_56
*217 FILLER_9_63
*218 FILLER_9_70
*219 FILLER_9_77
*220 FILLER_9_84
*221 FILLER_9_86
*222 FILLER_9_95
*223 FILLER_9_102
*224 FILLER_9_109
*225 FILLER_9_113
*226 FILLER_9_119
*227 FILLER_9_123
*228 FILLER_10_0
*229 FILLER_10_7
*230 FILLER_10_14
*231 FILLER_10_21
*232 FILLER_10_28
*233 FILLER_10_35
*234 FILLER_10_42
*235 FILLER_10_49
*236 FILLER_10_56
*237 FILLER_10_63
*238 FILLER_10_70
*239 FILLER_10_77
*240 FILLER_10_84
*241 FILLER_10_91
*242 FILLER_10_98
*243 FILLER_10_105
*244 FILLER_10_112
*245 FILLER_10_119
*246 FILLER_10_123
*247 FILLER_11_0
*248 FILLER_11_7
*249 FILLER_11_14
*250 FILLER_11_21
*251 FILLER_11_28
*252 FILLER_11_35
*253 FILLER_11_42
*254 FILLER_11_49
*255 FILLER_11_56
*256 FILLER_11_63
*257 FILLER_11_70
*258 FILLER_11_77
*259 FILLER_11_84
*260 FILLER_11_91
*261 FILLER_11_98
*262 FILLER_11_105
*263 FILLER_11_112
*264 FILLER_11_119
*265 FILLER_11_123
*266 FILLER_12_0
*267 FILLER_12_7
*268 FILLER_12_14
*269 FILLER_12_21
*270 FILLER_12_28
*271 FILLER_12_35
*272 FILLER_12_42
*273 FILLER_12_49
*274 FILLER_12_56
*275 FILLER_12_63
*276 FILLER_12_70
*277 FILLER_12_77
*278 FILLER_12_84
*279 FILLER_12_91
*280 FILLER_12_98
*281 FILLER_12_105
*282 FILLER_12_112
*283 FILLER_12_119
*284 FILLER_12_123
*285 FILLER_13_0
*286 FILLER_13_7
*287 FILLER_13_14
*288 FILLER_13_21
*289 FILLER_13_28
*290 FILLER_13_35
*291 FILLER_13_42
*292 FILLER_13_49
*293 FILLER_13_56
*294 FILLER_13_63
*295 FILLER_13_70
*296 FILLER_13_77
*297 FILLER_13_84
*298 FILLER_13_91
*299 FILLER_13_98
*300 FILLER_13_105
*301 FILLER_13_112
*302 FILLER_13_119
*303 FILLER_13_123
*304 FILLER_14_0
*305 FILLER_14_7
*306 FILLER_14_14
*307 FILLER_14_21
*308 FILLER_14_28
*309 FILLER_14_35
*310 FILLER_14_42
*311 FILLER_14_49
*312 FILLER_14_56
*313 FILLER_14_63
*314 FILLER_14_70
*315 FILLER_14_77
*316 FILLER_14_84
*317 FILLER_14_91
*318 FILLER_14_98
*319 FILLER_14_105
*320 FILLER_14_112
*321 FILLER_14_119
*322 FILLER_14_123

*PORTS
clock_i I
counter_value_o[0] O
counter_value_o[1] O
counter_value_o[2] O
counter_value_o[3] O
enable_i I
reset_n_i I

*D_NET *1 0.00922697
*CONN
*P clock_i I
*I *51:A I *D sg13g2_buf_2
*CAP
1 clock_i 0.00207488
2 *51:A 0
3 *1:17 0.000937833
4 *1:9 0.00301271
5 *1:9 *45:A 0.00251922
6 *1:9 *46:A 0
7 *1:17 *35:B 0.000500937
8 *1:17 *40:B 0
9 *1:17 *41:RESET_B 0
10 *1:17 *45:A 0
11 *1:17 *2:68 0
12 *1:17 *14:10 0.000181383
13 *1:17 *23:8 0
*RES
1 clock_i *1:9 37.6616 
2 *1:9 *1:17 30.2102 
3 *1:17 *51:A 20 
*END

*D_NET *2 0.00703388
*CONN
*I *47:A I *D sg13g2_buf_1
*I *35:A I *D sg13g2_nand2_1
*I *37:B I *D sg13g2_nand3_1
*I *39:B I *D sg13g2_nand4_1
*I *34:A I *D sg13g2_xor2_1
*I *41:Q O *D sg13g2_dfrbp_1
*CAP
1 *47:A 0.000773755
2 *35:A 0
3 *37:B 4.32982e-05
4 *39:B 0.000399509
5 *34:A 0.000492641
6 *41:Q 0.000375512
7 *2:68 0.000453368
8 *2:60 0.00122712
9 *2:58 0.000174991
10 *2:25 0.000619627
11 *2:10 0.000869981
12 *34:A *36:A 0
13 *34:A *36:B 7.51688e-05
14 *34:A *41:RESET_B 0
15 *34:A *44:CLK 0.000872879
16 *34:A *10:10 0
17 *34:A *23:18 0
18 *34:A *30:10 0
19 *37:B *39:C 0
20 *37:B *39:D 5.68871e-05
21 *37:B *23:18 4.79124e-05
22 *39:B *39:C 1.72476e-05
23 *39:B *39:D 0
24 *39:B *3:16 0
25 *39:B *15:8 0
26 *47:A *43:RESET_B 0
27 *47:A *43:D 0
28 *47:A *4:6 0
29 *47:A *4:10 0
30 *47:A *5:18 0
31 *47:A *29:33 0
32 *47:A *31:14 0
33 *2:10 *9:24 0
34 *2:10 *11:10 0
35 *2:10 *13:10 0.000210493
36 *2:10 *14:10 0
37 *2:25 *52:A 0
38 *2:25 *13:10 1.54609e-05
39 *2:25 *15:8 0
40 *2:58 *5:18 0
41 *2:58 *12:10 0
42 *2:58 *15:8 0.000308023
43 *2:68 *40:B 0
44 *2:68 *5:18 0
45 *2:68 *14:10 0
46 *2:68 *29:33 0
47 *1:17 *2:68 0
*RES
1 *41:Q *2:10 41.9184 
2 *2:10 *34:A 45.7288 
3 *2:10 *2:25 1.5664 
4 *2:25 *39:B 43.465 
5 *2:25 *37:B 40.4378 
6 *41:Q *2:58 41.7512 
7 *2:58 *2:60 20 
8 *2:60 *2:68 43.6872 
9 *2:68 *35:A 20 
10 *2:60 *47:A 27.0928 
*END

*D_NET *3 0.00323571
*CONN
*I *48:A I *D sg13g2_buf_1
*I *39:A I *D sg13g2_nand4_1
*I *37:A I *D sg13g2_nand3_1
*I *36:A I *D sg13g2_xnor2_1
*I *42:Q O *D sg13g2_dfrbp_1
*CAP
1 *48:A 7.85156e-05
2 *39:A 0
3 *37:A 0
4 *36:A 0.000227474
5 *42:Q 0.000139652
6 *3:46 0.000176687
7 *3:33 0.000134952
8 *3:16 0.000532828
9 *3:14 0.000784222
10 *3:10 0.0006553
11 *36:A *44:CLK 7.51291e-05
12 *36:A *23:18 0
13 *48:A counter_value_o[3] 0
14 *3:10 *50:A 0
15 *3:14 *50:A 0
16 *3:14 *5:18 0
17 *3:16 *39:C 0
18 *3:16 *39:D 0
19 *3:16 *44:CLK 0.00012839
20 *3:16 *5:18 0
21 *3:33 *39:D 9.17414e-05
22 *3:33 *15:8 0.000210819
23 *3:33 *16:8 0
24 *3:46 *39:C 0
25 *3:46 *16:8 0
26 *34:A *36:A 0
27 *39:B *3:16 0
*RES
1 *42:Q *3:10 21.584 
2 *3:10 *3:14 4.3208 
3 *3:14 *3:16 1.7776 
4 *3:16 *36:A 22.2352 
5 *3:16 *3:33 41.562 
6 *3:33 *37:A 20 
7 *3:14 *3:46 41.3838 
8 *3:46 *39:A 20 
9 *3:10 *48:A 20.7216 
*END

*D_NET *4 0.00344586
*CONN
*I *49:A I *D sg13g2_buf_1
*I *38:A I *D sg13g2_xnor2_1
*I *39:C I *D sg13g2_nand4_1
*I *43:Q O *D sg13g2_dfrbp_1
*CAP
1 *49:A 0.00013953
2 *38:A 0.000473015
3 *39:C 0.000633291
4 *43:Q 2.86241e-05
5 *4:10 0.00154615
6 *4:6 0.000607999
7 *38:A *12:10 0
8 *38:A *29:33 0
9 *38:A *31:10 0
10 *39:C *39:D 0
11 *39:C *16:8 0
12 *4:10 *31:14 0
13 *37:B *39:C 0
14 *39:B *39:C 1.72476e-05
15 *47:A *4:6 0
16 *47:A *4:10 0
17 *3:16 *39:C 0
18 *3:46 *39:C 0
*RES
1 *43:Q *4:6 20.2992 
2 *4:6 *4:10 23.8896 
3 *4:10 *39:C 46.2436 
4 *4:10 *38:A 44.2944 
5 *4:6 *49:A 21.3816 
*END

*D_NET *5 0.00283254
*CONN
*I *50:A I *D sg13g2_buf_1
*I *40:A I *D sg13g2_xnor2_1
*I *44:Q O *D sg13g2_dfrbp_1
*CAP
1 *50:A 0.000103147
2 *40:A 0
3 *44:Q 0
4 *5:18 0.00088058
5 *5:4 0.000983727
6 *5:18 *40:B 0.000393929
7 *5:18 *42:CLK 0
8 *5:18 *11:10 0
9 *5:18 *12:10 0
10 *5:18 *15:8 0
11 *5:18 *16:8 0.000471159
12 *47:A *5:18 0
13 *2:58 *5:18 0
14 *2:68 *5:18 0
15 *3:10 *50:A 0
16 *3:14 *50:A 0
17 *3:14 *5:18 0
18 *3:16 *5:18 0
*RES
1 *44:Q *5:4 20 
2 *5:4 *5:18 48.7032 
3 *5:18 *40:A 20 
4 *5:4 *50:A 20.968 
*END

*D_NET *6 0.00622417
*CONN
*P enable_i I
*I *45:A I *D sg13g2_buf_2
*CAP
1 enable_i 0.00185248
2 *45:A 0.00185248
3 *45:A *32:A 0
4 *45:A *46:A 0
5 *45:A *23:8 0
6 *1:9 *45:A 0.00251922
7 *1:17 *45:A 0
*RES
1 enable_i *45:A 39.459 
*END

*D_NET *7 0.000479997
*CONN
*I *33:A I *D sg13g2_inv_4
*I *32:Y O *D sg13g2_inv_2
*CAP
1 *33:A 0.000216042
2 *32:Y 0.000216042
3 *33:A *32:A 4.79124e-05
4 *33:A *23:8 0
*RES
1 *32:Y *33:A 41.8392 
*END

*D_NET *8 0.00414052
*CONN
*P reset_n_i I
*I *46:A I *D sg13g2_buf_1
*CAP
1 reset_n_i 0.00207026
2 *46:A 0.00207026
3 *45:A *46:A 0
4 *1:9 *46:A 0
*RES
1 reset_n_i *46:A 36.9752 
*END

*D_NET *9 0.00182039
*CONN
*I *43:RESET_B I *D sg13g2_dfrbp_1
*I *42:RESET_B I *D sg13g2_dfrbp_1
*I *44:RESET_B I *D sg13g2_dfrbp_1
*I *41:RESET_B I *D sg13g2_dfrbp_1
*I *33:Y O *D sg13g2_inv_4
*CAP
1 *43:RESET_B 0.000278844
2 *42:RESET_B 0.000305674
3 *44:RESET_B 0.000153468
4 *41:RESET_B 0.000413376
5 *33:Y 0.000133455
6 *9:24 0.00046022
7 *41:RESET_B *23:8 0
8 *43:RESET_B *42:CLK 7.53575e-05
9 *44:RESET_B *44:CLK 0
10 *9:24 *40:B 0
11 *9:24 *44:CLK 0
12 *9:24 *11:10 0
13 *34:A *41:RESET_B 0
14 *47:A *43:RESET_B 0
15 *1:17 *41:RESET_B 0
16 *2:10 *9:24 0
*RES
1 *33:Y *41:RESET_B 21.2496 
2 *41:RESET_B *9:24 2.7016 
3 *9:24 *44:RESET_B 1.5224 
4 *9:24 *42:RESET_B 0.2552 
5 *42:RESET_B *43:RESET_B 2.6576 
*END

*D_NET *10 0.000879568
*CONN
*I *41:D I *D sg13g2_dfrbp_1
*I *34:X O *D sg13g2_xor2_1
*CAP
1 *41:D 0
2 *34:X 0.000245068
3 *10:10 0.000245068
4 *10:10 *41:CLK 0
5 *10:10 *23:10 0.000308782
6 *10:10 *23:18 8.06499e-05
7 *10:10 *30:10 0
8 *34:A *10:10 0
*RES
1 *34:X *10:10 42.42 
2 *10:10 *41:D 40 
*END

*D_NET *11 0.000920425
*CONN
*I *42:D I *D sg13g2_dfrbp_1
*I *36:Y O *D sg13g2_xnor2_1
*CAP
1 *42:D 0
2 *36:Y 0.000316375
3 *11:10 0.000316375
4 *11:10 *44:CLK 0.000287675
5 *11:10 *15:8 0
6 *2:10 *11:10 0
7 *5:18 *11:10 0
8 *9:24 *11:10 0
*RES
1 *36:Y *11:10 42.9744 
2 *11:10 *42:D 40 
*END

*D_NET *12 0.000406224
*CONN
*I *43:D I *D sg13g2_dfrbp_1
*I *38:Y O *D sg13g2_xnor2_1
*CAP
1 *43:D 4.8037e-05
2 *38:Y 0.000155075
3 *12:10 0.000203112
4 *12:10 *15:8 0
5 *38:A *12:10 0
6 *47:A *43:D 0
7 *2:58 *12:10 0
8 *5:18 *12:10 0
*RES
1 *38:Y *12:10 41.0384 
2 *12:10 *43:D 40.2992 
*END

*D_NET *13 0.00138965
*CONN
*I *44:D I *D sg13g2_dfrbp_1
*I *40:Y O *D sg13g2_xnor2_1
*CAP
1 *44:D 0
2 *40:Y 0.000292629
3 *13:10 0.000292629
4 *13:10 *40:B 7.51291e-05
5 *13:10 *14:10 0
6 *13:10 *15:8 0.000503309
7 *2:10 *13:10 0.000210493
8 *2:25 *13:10 1.54609e-05
*RES
1 *40:Y *13:10 43.1592 
2 *13:10 *44:D 40 
*END

*D_NET *14 0.0019081
*CONN
*I *36:B I *D sg13g2_xnor2_1
*I *35:Y O *D sg13g2_nand2_1
*CAP
1 *36:B 2.19484e-05
2 *35:Y 0.000479158
3 *14:10 0.000501106
4 *36:B *23:18 0
5 *14:10 *52:A 0.000536914
6 *14:10 *29:33 0.000112425
7 *34:A *36:B 7.51688e-05
8 *1:17 *14:10 0.000181383
9 *2:10 *14:10 0
10 *2:68 *14:10 0
11 *13:10 *14:10 0
*RES
1 *35:Y *14:10 44.7432 
2 *14:10 *36:B 40.2992 
*END

*D_NET *15 0.00260953
*CONN
*I *38:B I *D sg13g2_xnor2_1
*I *37:Y O *D sg13g2_nand3_1
*CAP
1 *38:B 3.63713e-05
2 *37:Y 0.000757319
3 *15:8 0.00079369
4 *38:B *29:33 0
5 *15:8 *16:8 0
6 *15:8 *29:33 0
7 *39:B *15:8 0
8 *2:25 *15:8 0
9 *2:58 *15:8 0.000308023
10 *3:33 *15:8 0.000210819
11 *5:18 *15:8 0
12 *11:10 *15:8 0
13 *12:10 *15:8 0
14 *13:10 *15:8 0.000503309
*RES
1 *37:Y *15:8 47.1104 
2 *15:8 *38:B 40.2992 
*END

*D_NET *16 0.00239005
*CONN
*I *40:B I *D sg13g2_xnor2_1
*I *39:Y O *D sg13g2_nand4_1
*CAP
1 *40:B 0.000214743
2 *39:Y 0.000510172
3 *16:8 0.000724915
4 *39:C *16:8 0
5 *1:17 *40:B 0
6 *2:68 *40:B 0
7 *3:33 *16:8 0
8 *3:46 *16:8 0
9 *5:18 *40:B 0.000393929
10 *5:18 *16:8 0.000471159
11 *9:24 *40:B 0
12 *13:10 *40:B 7.51291e-05
13 *15:8 *16:8 0
*RES
1 *39:Y *16:8 45.0776 
2 *16:8 *40:B 42.4728 
*END

*D_NET *23 0.0051935
*CONN
*I *35:B I *D sg13g2_nand2_1
*I *34:B I *D sg13g2_xor2_1
*I *37:C I *D sg13g2_nand3_1
*I *39:D I *D sg13g2_nand4_1
*I *45:X O *D sg13g2_buf_2
*CAP
1 *35:B 0.000264049
2 *34:B 0
3 *37:C 0
4 *39:D 0.000255652
5 *45:X 0.000438223
6 *23:18 0.000787567
7 *23:10 0.000754816
8 *23:8 0.000925173
9 *23:8 *32:A 0
10 *23:18 *52:A 0.000525884
11 *23:18 *30:10 0.000155228
12 *33:A *23:8 0
13 *34:A *23:18 0
14 *36:A *23:18 0
15 *36:B *23:18 0
16 *37:B *39:D 5.68871e-05
17 *37:B *23:18 4.79124e-05
18 *39:B *39:D 0
19 *39:C *39:D 0
20 *41:RESET_B *23:8 0
21 *45:A *23:8 0
22 *1:17 *35:B 0.000500937
23 *1:17 *23:8 0
24 *3:16 *39:D 0
25 *3:33 *39:D 9.17414e-05
26 *10:10 *23:10 0.000308782
27 *10:10 *23:18 8.06499e-05
*RES
1 *45:X *23:8 43.784 
2 *23:8 *23:10 2.3056 
3 *23:10 *23:18 26.1776 
4 *23:18 *39:D 22.4112 
5 *23:18 *37:C 20 
6 *23:10 *34:B 40 
7 *23:8 *35:B 43.1856 
*END

*D_NET *24 0.000771034
*CONN
*I *32:A I *D sg13g2_inv_2
*I *46:X O *D sg13g2_buf_1
*CAP
1 *32:A 0.000361561
2 *46:X 0.000361561
3 *33:A *32:A 4.79124e-05
4 *45:A *32:A 0
5 *23:8 *32:A 0
*RES
1 *46:X *32:A 43.1856 
*END

*D_NET *25 0.00193943
*CONN
*P counter_value_o[0] O
*I *47:X O *D sg13g2_buf_1
*CAP
1 counter_value_o[0] 0.000969714
2 *47:X 0.000969714
3 counter_value_o[0] counter_value_o[1] 0
4 counter_value_o[0] counter_value_o[3] 0
*RES
1 *47:X counter_value_o[0] 30.1376 
*END

*D_NET *26 0.00275419
*CONN
*P counter_value_o[1] O
*I *48:X O *D sg13g2_buf_1
*CAP
1 counter_value_o[1] 0.00107328
2 *48:X 0.000226317
3 *26:10 0.0012996
4 counter_value_o[1] counter_value_o[2] 0
5 *26:10 counter_value_o[3] 0.000155
6 counter_value_o[0] counter_value_o[1] 0
*RES
1 *48:X *26:10 42.3672 
2 *26:10 counter_value_o[1] 28.9144 
*END

*D_NET *27 0.00229591
*CONN
*P counter_value_o[2] O
*I *49:X O *D sg13g2_buf_1
*CAP
1 counter_value_o[2] 0.00114795
2 *49:X 0.00114795
3 counter_value_o[2] counter_value_o[3] 0
4 counter_value_o[1] counter_value_o[2] 0
*RES
1 *49:X counter_value_o[2] 29.8032 
*END

*D_NET *28 0.00238622
*CONN
*P counter_value_o[3] O
*I *50:X O *D sg13g2_buf_1
*CAP
1 counter_value_o[3] 0.00111561
2 *50:X 0.00111561
3 counter_value_o[0] counter_value_o[3] 0
4 counter_value_o[2] counter_value_o[3] 0
5 *48:A counter_value_o[3] 0
6 *26:10 counter_value_o[3] 0.000155
*RES
1 *50:X counter_value_o[3] 31.8008 
*END

*D_NET *29 0.00508536
*CONN
*I *53:A I *D sg13g2_buf_2
*I *52:A I *D sg13g2_buf_2
*I *51:X O *D sg13g2_buf_2
*CAP
1 *53:A 0
2 *52:A 0.000579064
3 *51:X 2.78904e-05
4 *29:33 0.00116417
5 *29:8 0.00177113
6 *52:A *41:CLK 0
7 *52:A *30:10 0
8 *29:33 *31:10 0.000367885
9 *38:A *29:33 0
10 *38:B *29:33 0
11 *47:A *29:33 0
12 *2:25 *52:A 0
13 *2:68 *29:33 0
14 *14:10 *52:A 0.000536914
15 *14:10 *29:33 0.000112425
16 *15:8 *29:33 0
17 *23:18 *52:A 0.000525884
*RES
1 *51:X *29:8 40.1936 
2 *29:8 *52:A 46.611 
3 *29:8 *29:33 30.9956 
4 *29:33 *53:A 20 
*END

*D_NET *30 0.00308788
*CONN
*I *41:CLK I *D sg13g2_dfrbp_1
*I *44:CLK I *D sg13g2_dfrbp_1
*I *52:X O *D sg13g2_buf_2
*CAP
1 *41:CLK 0.00014819
2 *44:CLK 0.00043084
3 *52:X 0.00020526
4 *30:10 0.000784289
5 *34:A *44:CLK 0.000872879
6 *34:A *30:10 0
7 *36:A *44:CLK 7.51291e-05
8 *44:RESET_B *44:CLK 0
9 *52:A *41:CLK 0
10 *52:A *30:10 0
11 *3:16 *44:CLK 0.00012839
12 *9:24 *44:CLK 0
13 *10:10 *41:CLK 0
14 *10:10 *30:10 0
15 *11:10 *44:CLK 0.000287675
16 *23:18 *30:10 0.000155228
*RES
1 *52:X *30:10 41.3552 
2 *30:10 *44:CLK 45.7376 
3 *30:10 *41:CLK 40.1848 
*END

*D_NET *31 0.00217121
*CONN
*I *43:CLK I *D sg13g2_dfrbp_1
*I *42:CLK I *D sg13g2_dfrbp_1
*I *53:X O *D sg13g2_buf_2
*CAP
1 *43:CLK 0
2 *42:CLK 0.000245364
3 *53:X 0.000291146
4 *31:14 0.00057284
5 *31:10 0.000618622
6 *38:A *31:10 0
7 *43:RESET_B *42:CLK 7.53575e-05
8 *47:A *31:14 0
9 *4:10 *31:14 0
10 *5:18 *42:CLK 0
11 *29:33 *31:10 0.000367885
*RES
1 *53:X *31:10 43.212 
2 *31:10 *31:14 22.4112 
3 *31:14 *42:CLK 22.288 
4 *31:14 *43:CLK 20 
*END
